data/nesta/api/nesta_case3120sp_mp__api.m
%%%%%%%%%%%%%%%%%%%%%%%%%%%%%%%%%%%%%%%%%%%%%%%%%%%%%%%%%%%%%%%%%%%%%%%%%%%
%%%%                                                                  %%%%%
%%%%      NICTA Energy System Test Case Archive (NESTA) - v0.1.5      %%%%%
%%%%            Optimal Power Flow - Active Power Increase            %%%%%
%%%%                       30 - October - 2014                        %%%%%
%%%%                                                                  %%%%%
%%%%%%%%%%%%%%%%%%%%%%%%%%%%%%%%%%%%%%%%%%%%%%%%%%%%%%%%%%%%%%%%%%%%%%%%%%%
function mpc = nesta_case3120sp_mp__api
mpc.version = '2';
mpc.baseMVA = 100.0;

%% area data
%	area	refbus
mpc.areas = [
	1	 1;
];

%% bus data
%	bus_i	type	Pd	Qd	Gs	Bs	area	Vm	Va	baseKV	zone	Vmax	Vmin
mpc.bus = [
	1	 1	 0.00	 0.00	 0.0	 0.0	 1	     1.0000	     0.0000	 220.0	 1	     1.1100	     0.9500;
	2	 1	 0.00	 0.00	 0.0	 0.0	 1	     1.0000	     0.0000	 220.0	 1	     1.1100	     0.9500;
	3	 1	 0.00	 0.00	 0.0	 0.0	 1	     1.0000	     0.0000	 220.0	 1	     1.1100	     0.9500;
	4	 1	 0.00	 0.00	 0.0	 0.0	 1	     1.0000	     0.0000	 220.0	 1	     1.1100	     0.9500;
	5	 1	 0.00	 0.00	 0.0	 0.0	 1	     1.0000	     0.0000	 220.0	 1	     1.1100	     0.9500;
	6	 1	 0.00	 0.00	 0.0	 0.0	 1	     1.0000	     0.0000	 220.0	 1	     1.1100	     0.9500;
	7	 1	 0.00	 0.00	 0.0	 0.0	 1	     1.0000	     0.0000	 220.0	 1	     1.1100	     0.9500;
	8	 1	 0.00	 0.00	 0.0	 0.0	 1	     1.0000	     0.0000	 220.0	 1	     1.1100	     0.9500;
	9	 1	 0.00	 0.00	 0.0	 0.0	 1	     1.0000	     0.0000	 220.0	 1	     1.1100	     0.9500;
	10	 1	 0.00	 0.00	 0.0	 0.0	 1	     1.0000	     0.0000	 220.0	 1	     1.1100	     0.9500;
	11	 1	 0.00	 0.00	 0.0	 0.0	 1	     1.0000	     0.0000	 400.0	 1	     1.0500	     0.9500;
	12	 1	 0.00	 0.00	 0.0	 0.0	 1	     1.0000	     0.0000	 400.0	 1	     1.0500	     0.9500;
	13	 1	 0.00	 0.00	 0.0	 0.0	 1	     1.0000	     0.0000	 400.0	 1	     1.0500	     0.9500;
	14	 1	 0.00	 0.00	 0.0	 0.0	 1	     1.0000	     0.0000	 220.0	 1	     1.1100	     0.9500;
	15	 1	 0.00	 0.00	 0.0	 0.0	 1	     1.0000	     0.0000	 220.0	 1	     1.1100	     0.9500;
	16	 1	 0.00	 0.00	 0.0	 0.0	 1	     1.0000	     0.0000	 220.0	 1	     1.1100	     0.9500;
	17	 1	 0.00	 0.00	 0.0	 0.0	 1	     1.0000	     0.0000	 220.0	 1	     1.1100	     0.9500;
	18	 1	 0.00	 0.00	 0.0	 0.0	 1	     1.0000	     0.0000	 400.0	 1	     1.0500	     0.9500;
	19	 1	 0.00	 0.00	 0.0	 0.0	 1	     1.0000	     0.0000	 400.0	 1	     1.0500	     0.9500;
	20	 1	 0.00	 0.00	 0.0	 0.0	 1	     1.0000	     0.0000	 400.0	 1	     1.0500	     0.9500;
	21	 1	 0.00	 0.00	 0.0	 0.0	 1	     1.0000	     0.0000	 400.0	 1	     1.0500	     0.9500;
	22	 2	 11.81	 20.00	 0.0	 0.0	 1	     1.0000	     0.0000	 220.0	 1	     1.1100	     0.9500;
	23	 2	 11.81	 20.00	 0.0	 0.0	 1	     1.0000	     0.0000	 220.0	 1	     1.1100	     0.9500;
	24	 1	 0.00	 0.00	 0.0	 0.0	 1	     1.0000	     0.0000	 220.0	 1	     1.1100	     0.9500;
	25	 1	 0.00	 0.00	 0.0	 0.0	 1	     1.0000	     0.0000	 220.0	 1	     1.1100	     0.9500;
	26	 1	 0.00	 0.00	 0.0	 0.0	 1	     1.0000	     0.0000	 220.0	 1	     1.1100	     0.9500;
	27	 1	 0.00	 0.00	 0.0	 0.0	 1	     1.0000	     0.0000	 220.0	 1	     1.1100	     0.9500;
	28	 1	 0.00	 0.00	 0.0	 0.0	 1	     1.0000	     0.0000	 220.0	 1	     1.1100	     0.9500;
	29	 1	 0.00	 0.00	 0.0	 0.0	 1	     1.0000	     0.0000	 220.0	 1	     1.1100	     0.9500;
	30	 1	 0.00	 0.00	 0.0	 0.0	 1	     1.0000	     0.0000	 220.0	 1	     1.1100	     0.9500;
	31	 1	 0.00	 0.00	 0.0	 0.0	 1	     1.0000	     0.0000	 220.0	 1	     1.1100	     0.9500;
	32	 1	 0.00	 0.00	 0.0	 0.0	 1	     1.0000	     0.0000	 400.0	 1	     1.0500	     0.9500;
	33	 1	 0.00	 0.00	 0.0	 0.0	 1	     1.0000	     0.0000	 400.0	 1	     1.0500	     0.9500;
	34	 1	 0.00	 0.00	 0.0	 0.0	 1	     1.0000	     0.0000	 400.0	 1	     1.0500	     0.9500;
	35	 2	 38.00	 52.07	 0.0	 0.0	 1	     1.0000	     0.0000	 220.0	 1	     1.1100	     0.9500;
	36	 2	 54.77	 92.07	 0.0	 0.0	 1	     1.0000	     0.0000	 220.0	 1	     1.1100	     0.9500;
	37	 3	 70.89	 120.00	 0.0	 0.0	 1	     1.0000	     0.0000	 400.0	 1	     1.0500	     0.9500;
	38	 2	 70.89	 120.00	 0.0	 0.0	 1	     1.0000	     0.0000	 400.0	 1	     1.0500	     0.9500;
	39	 1	 0.00	 0.00	 0.0	 0.0	 1	     1.0000	     0.0000	 220.0	 1	     1.1100	     0.9500;
	40	 1	 0.00	 0.00	 0.0	 0.0	 1	     1.0000	     0.0000	 220.0	 1	     1.1100	     0.9500;
	41	 1	 0.00	 0.00	 0.0	 0.0	 1	     1.0000	     0.0000	 400.0	 1	     1.0500	     0.9500;
	42	 1	 0.00	 0.00	 0.0	 0.0	 1	     1.0000	     0.0000	 400.0	 1	     1.0500	     0.9500;
	43	 1	 0.00	 0.00	 0.0	 0.0	 1	     1.0000	     0.0000	 220.0	 1	     1.1100	     0.9500;
	44	 1	 0.00	 0.00	 0.0	 0.0	 1	     1.0000	     0.0000	 400.0	 1	     1.0500	     0.9500;
	45	 1	 0.00	 0.00	 0.0	 0.0	 1	     1.0000	     0.0000	 220.0	 1	     1.1100	     0.9500;
	46	 1	 0.00	 0.00	 0.0	 0.0	 1	     1.0000	     0.0000	 220.0	 1	     1.1100	     0.9500;
	47	 1	 0.00	 0.00	 0.0	 0.0	 1	     1.0000	     0.0000	 220.0	 2	     1.1100	     0.9500;
	48	 1	 0.00	 0.00	 0.0	 0.0	 1	     1.0000	     0.0000	 220.0	 2	     1.1100	     0.9500;
	49	 1	 0.00	 0.00	 0.0	 0.0	 1	     1.0000	     0.0000	 220.0	 2	     1.1100	     0.9500;
	50	 1	 0.00	 0.00	 0.0	 0.0	 1	     1.0000	     0.0000	 220.0	 2	     1.1100	     0.9500;
	51	 1	 0.00	 0.00	 0.0	 0.0	 1	     1.0000	     0.0000	 220.0	 2	     1.1100	     0.9500;
	52	 1	 4.69	 1.00	 0.0	 0.0	 1	     1.0000	     0.0000	 220.0	 2	     1.1100	     0.9500;
	53	 1	 0.00	 0.00	 0.0	 0.0	 1	     1.0000	     0.0000	 220.0	 2	     1.1100	     0.9500;
	54	 1	 0.00	 0.00	 0.0	 0.0	 1	     1.0000	     0.0000	 400.0	 2	     1.0500	     0.9500;
	55	 2	 15.36	 30.00	 0.0	 0.0	 1	     1.0000	     0.0000	 220.0	 2	     1.1100	     0.9500;
	56	 2	 46.49	 90.07	 0.0	 0.0	 1	     1.0000	     0.0000	 220.0	 2	     1.1100	     0.9500;
	57	 2	 30.72	 60.00	 0.0	 0.0	 1	     1.0000	     0.0000	 220.0	 2	     1.1100	     0.9500;
	58	 2	 30.72	 50.00	 0.0	 0.0	 1	     1.0000	     0.0000	 400.0	 2	     1.0500	     0.9500;
	59	 2	 30.72	 50.00	 0.0	 0.0	 1	     1.0000	     0.0000	 400.0	 2	     1.0500	     0.9500;
	60	 1	 0.00	 0.00	 0.0	 0.0	 1	     1.0000	     0.0000	 220.0	 2	     1.1100	     0.9500;
	61	 1	 0.00	 0.00	 0.0	 0.0	 1	     1.0000	     0.0000	 400.0	 2	     1.0500	     0.9500;
	62	 1	 0.00	 0.00	 0.0	 0.0	 1	     1.0000	     0.0000	 400.0	 2	     1.0500	     0.9500;
	63	 1	 0.00	 0.00	 0.0	 0.0	 1	     1.0000	     0.0000	 400.0	 2	     1.0500	     0.9500;
	64	 1	 0.00	 0.00	 0.0	 0.0	 1	     1.0000	     0.0000	 220.0	 2	     1.1100	     0.9500;
	65	 1	 0.00	 0.00	 0.0	 0.0	 1	     1.0000	     0.0000	 220.0	 2	     1.1100	     0.9500;
	66	 1	 0.00	 0.00	 0.0	 0.0	 1	     1.0000	     0.0000	 400.0	 2	     1.0500	     0.9500;
	67	 1	 0.00	 0.00	 0.0	 0.0	 1	     1.0000	     0.0000	 400.0	 2	     1.0500	     0.9500;
	68	 2	 15.36	 30.00	 0.0	 0.0	 1	     1.0000	     0.0000	 220.0	 2	     1.1100	     0.9500;
	69	 2	 30.72	 60.00	 0.0	 0.0	 1	     1.0000	     0.0000	 220.0	 2	     1.1100	     0.9500;
	70	 2	 0.00	 2.25	 0.0	 0.0	 1	     1.0000	     0.0000	 400.0	 2	     1.0500	     0.9500;
	71	 2	 30.72	 60.00	 0.0	 0.0	 1	     1.0000	     0.0000	 400.0	 2	     1.0500	     0.9500;
	72	 1	 0.00	 0.00	 0.0	 0.0	 1	     1.0000	     0.0000	 220.0	 2	     1.1100	     0.9500;
	73	 1	 0.00	 0.00	 0.0	 0.0	 1	     1.0000	     0.0000	 220.0	 2	     1.1100	     0.9500;
	74	 1	 0.00	 0.00	 0.0	 0.0	 1	     1.0000	     0.0000	 220.0	 2	     1.1100	     0.9500;
	75	 1	 0.00	 0.00	 0.0	 0.0	 1	     1.0000	     0.0000	 220.0	 2	     1.1100	     0.9500;
	76	 1	 0.00	 0.00	 0.0	 0.0	 1	     1.0000	     0.0000	 220.0	 2	     1.1100	     0.9500;
	77	 1	 0.00	 0.00	 0.0	 0.0	 1	     1.0000	     0.0000	 220.0	 2	     1.1100	     0.9500;
	78	 1	 0.00	 0.00	 0.0	 0.0	 1	     1.0000	     0.0000	 400.0	 2	     1.0500	     0.9500;
	79	 1	 0.00	 0.00	 0.0	 0.0	 1	     1.0000	     0.0000	 400.0	 2	     1.0500	     0.9500;
	80	 1	 0.00	 0.00	 0.0	 0.0	 1	     1.0000	     0.0000	 220.0	 2	     1.1100	     0.9500;
	81	 1	 0.00	 0.00	 0.0	 0.0	 1	     1.0000	     0.0000	 220.0	 2	     1.1100	     0.9500;
	82	 1	 0.00	 0.00	 0.0	 0.0	 1	     1.0000	     0.0000	 220.0	 2	     1.1100	     0.9500;
	83	 1	 0.00	 0.00	 0.0	 0.0	 1	     1.0000	     0.0000	 220.0	 3	     1.1100	     0.9500;
	84	 1	 7.57	 2.01	 0.0	 0.0	 1	     1.0000	     0.0000	 220.0	 3	     1.1100	     0.9500;
	85	 1	 16.41	 5.02	 0.0	 0.0	 1	     1.0000	     0.0000	 220.0	 3	     1.1100	     0.9500;
	86	 1	 0.00	 0.00	 0.0	 0.0	 1	     1.0000	     0.0000	 220.0	 3	     1.1100	     0.9500;
	87	 1	 0.00	 0.00	 0.0	 0.0	 1	     1.0000	     0.0000	 220.0	 3	     1.1100	     0.9500;
	88	 1	 0.00	 0.00	 0.0	 0.0	 1	     1.0000	     0.0000	 220.0	 3	     1.1100	     0.9500;
	89	 1	 0.00	 0.00	 0.0	 0.0	 1	     1.0000	     0.0000	 220.0	 3	     1.1100	     0.9500;
	90	 1	 0.00	 0.00	 0.0	 0.0	 1	     1.0000	     0.0000	 220.0	 3	     1.1100	     0.9500;
	91	 1	 0.00	 0.00	 0.0	 0.0	 1	     1.0000	     0.0000	 220.0	 3	     1.1100	     0.9500;
	92	 2	 33.08	 70.00	 0.0	 0.0	 1	     1.0000	     0.0000	 220.0	 3	     1.1100	     0.9500;
	93	 2	 33.08	 68.00	 0.0	 0.0	 1	     1.0000	     0.0000	 220.0	 3	     1.1100	     0.9500;
	94	 1	 3.28	 1.91	 0.0	 0.0	 1	     1.0000	     0.0000	 220.0	 3	     1.1100	     0.9500;
	95	 1	 0.00	 0.00	 0.0	 0.0	 1	     1.0000	     0.0000	 220.0	 3	     1.1100	     0.9500;
	96	 2	 37.81	 142.00	 0.0	 0.0	 1	     1.0000	     0.0000	 400.0	 3	     1.0500	     0.9500;
	97	 1	 0.00	 0.00	 0.0	 0.0	 1	     1.0000	     0.0000	 400.0	 3	     1.0500	     0.9500;
	98	 1	 0.00	 0.00	 0.0	 0.0	 1	     1.0000	     0.0000	 220.0	 3	     1.1100	     0.9500;
	99	 1	 0.00	 0.00	 0.0	 0.0	 1	     1.0000	     0.0000	 220.0	 3	     1.1100	     0.9500;
	100	 1	 0.00	 0.00	 0.0	 0.0	 1	     1.0000	     0.0000	 220.0	 3	     1.1100	     0.9500;
	101	 1	 38.80	 -2.70	 0.0	 0.0	 1	     1.0000	     0.0000	 220.0	 3	     1.1100	     0.9500;
	102	 1	 0.00	 0.00	 0.0	 0.0	 1	     1.0000	     0.0000	 220.0	 3	     1.1100	     0.9500;
	103	 1	 0.00	 0.00	 0.0	 0.0	 1	     1.0000	     0.0000	 220.0	 3	     1.1100	     0.9500;
	104	 1	 0.00	 0.00	 0.0	 0.0	 1	     1.0000	     0.0000	 220.0	 3	     1.1100	     0.9500;
	105	 1	 0.00	 0.00	 0.0	 0.0	 1	     1.0000	     0.0000	 220.0	 3	     1.1100	     0.9500;
	106	 1	 0.00	 0.00	 0.0	 0.0	 1	     1.0000	     0.0000	 220.0	 3	     1.1100	     0.9500;
	107	 1	 0.00	 0.00	 0.0	 0.0	 1	     1.0000	     0.0000	 400.0	 3	     1.0500	     0.9500;
	108	 1	 0.00	 0.00	 0.0	 0.0	 1	     1.0000	     0.0000	 400.0	 3	     1.0500	     0.9500;
	109	 1	 0.00	 0.00	 0.0	 0.0	 1	     1.0000	     0.0000	 220.0	 3	     1.1100	     0.9500;
	110	 1	 0.00	 0.00	 0.0	 0.0	 1	     1.0000	     0.0000	 220.0	 3	     1.1100	     0.9500;
	111	 1	 0.00	 0.00	 0.0	 0.0	 1	     1.0000	     0.0000	 220.0	 3	     1.1100	     0.9500;
	112	 1	 0.00	 0.00	 0.0	 0.0	 1	     1.0000	     0.0000	 220.0	 3	     1.1100	     0.9500;
	113	 2	 45.38	 12.71	 0.0	 0.0	 1	     1.0000	     0.0000	 220.0	 3	     1.1100	     0.9500;
	114	 1	 0.00	 0.00	 0.0	 0.0	 1	     1.0000	     0.0000	 220.0	 3	     1.1100	     0.9500;
	115	 1	 0.00	 0.00	 0.0	 0.0	 1	     1.0000	     0.0000	 220.0	 3	     1.1100	     0.9500;
	116	 1	 0.00	 0.00	 0.0	 0.0	 1	     1.0000	     0.0000	 220.0	 3	     1.1100	     0.9500;
	117	 1	 0.00	 0.00	 0.0	 0.0	 1	     1.0000	     0.0000	 220.0	 3	     1.1100	     0.9500;
	118	 1	 0.00	 0.00	 0.0	 0.0	 1	     1.0000	     0.0000	 220.0	 3	     1.1100	     0.9500;
	119	 2	 11.81	 44.00	 0.0	 0.0	 1	     1.0000	     0.0000	 220.0	 3	     1.1100	     0.9500;
	120	 2	 11.81	 44.00	 0.0	 0.0	 1	     1.0000	     0.0000	 220.0	 3	     1.1100	     0.9500;
	121	 2	 8.27	 18.00	 0.0	 0.0	 1	     1.0000	     0.0000	 220.0	 3	     1.1100	     0.9500;
	122	 2	 9.45	 21.00	 0.0	 0.0	 1	     1.0000	     0.0000	 220.0	 3	     1.1100	     0.9500;
	123	 1	 0.00	 0.00	 0.0	 0.0	 1	     1.0000	     0.0000	 220.0	 3	     1.1100	     0.9500;
	124	 1	 70.18	 11.61	 0.0	 0.0	 1	     1.0000	     0.0000	 220.0	 3	     1.1100	     0.9500;
	125	 1	 0.00	 0.00	 0.0	 0.0	 1	     1.0000	     0.0000	 220.0	 3	     1.1100	     0.9500;
	126	 1	 0.00	 0.00	 0.0	 0.0	 1	     1.0000	     0.0000	 220.0	 3	     1.1100	     0.9500;
	127	 1	 0.00	 0.00	 0.0	 0.0	 1	     1.0000	     0.0000	 220.0	 3	     1.1100	     0.9500;
	128	 1	 0.00	 0.00	 0.0	 0.0	 1	     1.0000	     0.0000	 220.0	 3	     1.1100	     0.9500;
	129	 1	 0.00	 0.00	 0.0	 0.0	 1	     1.0000	     0.0000	 220.0	 3	     1.1100	     0.9500;
	130	 1	 0.00	 0.00	 0.0	 0.0	 1	     1.0000	     0.0000	 400.0	 3	     1.0500	     0.9500;
	131	 1	 0.00	 0.00	 0.0	 0.0	 1	     1.0000	     0.0000	 400.0	 3	     1.0500	     0.9500;
	132	 2	 0.00	 1.78	 0.0	 0.0	 1	     1.0000	     0.0000	 220.0	 3	     1.1100	     0.9500;
	133	 2	 10.63	 20.00	 0.0	 0.0	 1	     1.0000	     0.0000	 220.0	 3	     1.1100	     0.9500;
	134	 2	 7.09	 15.00	 0.0	 0.0	 1	     1.0000	     0.0000	 220.0	 3	     1.1100	     0.9500;
	135	 1	 0.00	 0.00	 0.0	 0.0	 1	     1.0000	     0.0000	 220.0	 3	     1.1100	     0.9500;
	136	 1	 0.00	 0.00	 0.0	 0.0	 1	     1.0000	     0.0000	 400.0	 3	     1.0500	     0.9500;
	137	 1	 0.00	 0.00	 0.0	 0.0	 1	     1.0000	     0.0000	 400.0	 3	     1.0500	     0.9500;
	138	 1	 0.00	 0.00	 0.0	 0.0	 1	     1.0000	     0.0000	 400.0	 3	     1.0500	     0.9500;
	139	 1	 0.00	 0.00	 0.0	 0.0	 1	     1.0000	     0.0000	 400.0	 3	     1.0500	     0.9500;
	140	 1	 0.00	 0.00	 0.0	 0.0	 1	     1.0000	     0.0000	 220.0	 3	     1.1100	     0.9500;
	141	 1	 0.00	 0.00	 0.0	 0.0	 1	     1.0000	     0.0000	 220.0	 3	     1.1100	     0.9500;
	142	 2	 21.50	 37.21	 0.0	 0.0	 1	     1.0000	     0.0000	 220.0	 3	     1.1100	     0.9500;
	143	 2	 49.05	 73.01	 0.0	 0.0	 1	     1.0000	     0.0000	 220.0	 3	     1.1100	     0.9500;
	144	 2	 33.08	 66.00	 0.0	 0.0	 1	     1.0000	     0.0000	 400.0	 3	     1.0500	     0.9500;
	145	 1	 0.00	 0.00	 0.0	 0.0	 1	     1.0000	     0.0000	 400.0	 3	     1.0500	     0.9500;
	146	 1	 0.00	 0.00	 0.0	 0.0	 1	     1.0000	     0.0000	 220.0	 3	     1.1100	     0.9500;
	147	 1	 0.00	 0.00	 0.0	 0.0	 1	     1.0000	     0.0000	 220.0	 3	     1.1100	     0.9500;
	148	 1	 0.00	 0.00	 0.0	 0.0	 1	     1.0000	     0.0000	 220.0	 3	     1.1100	     0.9500;
	149	 1	 0.00	 0.00	 0.0	 0.0	 1	     1.0000	     0.0000	 220.0	 3	     1.1100	     0.9500;
	150	 2	 0.00	 -0.79	 0.0	 0.0	 1	     1.0000	     0.0000	 220.0	 3	     1.1100	     0.9500;
	151	 2	 0.00	 -0.79	 0.0	 0.0	 1	     1.0000	     0.0000	 220.0	 3	     1.1100	     0.9500;
	152	 2	 9.10	 20.00	 0.0	 0.0	 1	     1.0000	     0.0000	 220.0	 4	     1.1100	     0.9500;
	153	 2	 9.22	 20.00	 0.0	 0.0	 1	     1.0000	     0.0000	 220.0	 4	     1.1100	     0.9500;
	154	 1	 0.00	 0.00	 0.0	 0.0	 1	     1.0000	     0.0000	 220.0	 4	     1.1100	     0.9500;
	155	 1	 0.00	 0.00	 0.0	 0.0	 1	     1.0000	     0.0000	 220.0	 4	     1.1100	     0.9500;
	156	 1	 0.00	 0.00	 0.0	 0.0	 1	     1.0000	     0.0000	 220.0	 4	     1.1100	     0.9500;
	157	 1	 0.00	 0.00	 0.0	 0.0	 1	     1.0000	     0.0000	 220.0	 4	     1.1100	     0.9500;
	158	 1	 0.00	 0.00	 0.0	 0.0	 1	     1.0000	     0.0000	 220.0	 4	     1.1100	     0.9500;
	159	 1	 0.00	 0.00	 0.0	 0.0	 1	     1.0000	     0.0000	 400.0	 4	     1.0500	     0.9500;
	160	 1	 0.00	 0.00	 0.0	 0.0	 1	     1.0000	     0.0000	 400.0	 4	     1.0500	     0.9500;
	161	 1	 0.00	 0.00	 0.0	 0.0	 1	     1.0000	     0.0000	 220.0	 4	     1.1100	     0.9500;
	162	 1	 0.00	 0.00	 0.0	 0.0	 1	     1.0000	     0.0000	 220.0	 4	     1.1100	     0.9500;
	163	 1	 0.00	 0.00	 0.0	 0.0	 1	     1.0000	     0.0000	 220.0	 4	     1.1100	     0.9500;
	164	 1	 0.00	 0.00	 0.0	 0.0	 1	     1.0000	     0.0000	 220.0	 4	     1.1100	     0.9500;
	165	 1	 0.00	 0.00	 0.0	 0.0	 1	     1.0000	     0.0000	 220.0	 4	     1.1100	     0.9500;
	166	 1	 0.00	 0.00	 0.0	 0.0	 1	     1.0000	     0.0000	 220.0	 4	     1.1100	     0.9500;
	167	 2	 0.00	 -13.01	 0.0	 0.0	 1	     1.0000	     0.0000	 220.0	 4	     1.1100	     0.9500;
	168	 1	 0.00	 0.00	 0.0	 0.0	 1	     1.0000	     0.0000	 220.0	 4	     1.1100	     0.9500;
	169	 2	 14.18	 30.00	 0.0	 0.0	 1	     1.0000	     0.0000	 220.0	 4	     1.1100	     0.9500;
	170	 2	 23.52	 36.57	 0.0	 0.0	 1	     1.0000	     0.0000	 220.0	 4	     1.1100	     0.9500;
	171	 2	 14.18	 30.00	 0.0	 0.0	 1	     1.0000	     0.0000	 400.0	 4	     1.0500	     0.9500;
	172	 2	 14.18	 30.00	 0.0	 0.0	 1	     1.0000	     0.0000	 400.0	 4	     1.0500	     0.9500;
	173	 1	 0.00	 0.00	 0.0	 0.0	 1	     1.0000	     0.0000	 220.0	 4	     1.1100	     0.9500;
	174	 1	 0.00	 0.00	 0.0	 0.0	 1	     1.0000	     0.0000	 220.0	 4	     1.1100	     0.9500;
	175	 1	 0.00	 0.00	 0.0	 0.0	 1	     1.0000	     0.0000	 220.0	 4	     1.1100	     0.9500;
	176	 1	 0.00	 0.00	 0.0	 0.0	 1	     1.0000	     0.0000	 220.0	 4	     1.1100	     0.9500;
	177	 2	 36.03	 64.20	 0.0	 0.0	 1	     1.0000	     0.0000	 220.0	 4	     1.1100	     0.9500;
	178	 2	 69.59	 96.00	 0.0	 0.0	 1	     1.0000	     0.0000	 220.0	 4	     1.1100	     0.9500;
	179	 1	 0.00	 0.00	 0.0	 0.0	 1	     1.0000	     0.0000	 220.0	 4	     1.1100	     0.9500;
	180	 2	 31.31	 64.20	 0.0	 0.0	 1	     1.0000	     0.0000	 400.0	 4	     1.0500	     0.9500;
	181	 1	 0.00	 0.00	 0.0	 0.0	 1	     1.0000	     0.0000	 400.0	 4	     1.0500	     0.9500;
	182	 1	 0.00	 0.00	 0.0	 0.0	 1	     1.0000	     0.0000	 220.0	 4	     1.1100	     0.9500;
	183	 1	 0.00	 0.00	 0.0	 0.0	 1	     1.0000	     0.0000	 220.0	 4	     1.1100	     0.9500;
	184	 1	 0.00	 0.00	 0.0	 0.0	 1	     1.0000	     0.0000	 400.0	 4	     1.0500	     0.9500;
	185	 1	 0.00	 0.00	 0.0	 0.0	 1	     1.0000	     0.0000	 400.0	 4	     1.0500	     0.9500;
	186	 1	 0.00	 0.00	 0.0	 0.0	 1	     1.0000	     0.0000	 400.0	 4	     1.0500	     0.9500;
	187	 1	 0.00	 0.00	 0.0	 0.0	 1	     1.0000	     0.0000	 400.0	 4	     1.0500	     0.9500;
	188	 2	 14.18	 30.00	 0.0	 0.0	 1	     1.0000	     0.0000	 220.0	 4	     1.1100	     0.9500;
	189	 2	 28.12	 60.00	 0.0	 0.0	 1	     1.0000	     0.0000	 220.0	 4	     1.1100	     0.9500;
	190	 2	 44.90	 64.00	 0.0	 0.0	 1	     1.0000	     0.0000	 400.0	 4	     1.0500	     0.9500;
	191	 1	 0.00	 0.00	 0.0	 0.0	 1	     1.0000	     0.0000	 220.0	 4	     1.1100	     0.9500;
	192	 1	 0.00	 0.00	 0.0	 0.0	 1	     1.0000	     0.0000	 220.0	 4	     1.1100	     0.9500;
	193	 1	 0.00	 0.00	 0.0	 0.0	 1	     1.0000	     0.0000	 220.0	 4	     1.1100	     0.9500;
	194	 1	 0.00	 0.00	 0.0	 0.0	 1	     1.0000	     0.0000	 220.0	 4	     1.1100	     0.9500;
	195	 1	 0.00	 0.00	 0.0	 0.0	 1	     1.0000	     0.0000	 220.0	 4	     1.1100	     0.9500;
	196	 1	 0.00	 0.00	 0.0	 0.0	 1	     1.0000	     0.0000	 220.0	 4	     1.1100	     0.9500;
	197	 1	 0.00	 0.00	 0.0	 0.0	 1	     1.0000	     0.0000	 400.0	 4	     1.0500	     0.9500;
	198	 1	 0.00	 0.00	 0.0	 0.0	 1	     1.0000	     0.0000	 220.0	 4	     1.1100	     0.9500;
	199	 1	 0.00	 0.00	 0.0	 0.0	 1	     1.0000	     0.0000	 220.0	 4	     1.1100	     0.9500;
	200	 1	 0.00	 0.00	 0.0	 0.0	 1	     1.0000	     0.0000	 220.0	 4	     1.1100	     0.9500;
...
];

%% generator data
%	bus	Pg	Qg	Qmax	Qmin	Vg	mBase	status	Pmax	Pmin	Pc1	Pc2	Qc1min	Qc1max	Qc2min	Qc2max	ramp_agc	ramp_10	ramp_30	ramp_q	apf
mpc.gen = [
	22	 147.0	 3.0	 162.0	 -117.0	 1.06818	 235.0	 1	 233	 55.0	 0.0	 0.0	 0.0	 0.0	 0.0	 0.0	 0.0	 0.0	 0.0	 0.0	 0.0; % NG
	23	 175.0	 55.0	 164.0	 -164.0	 1.06818	 235.0	 1	 328	 70.0	 0.0	 0.0	 0.0	 0.0	 0.0	 0.0	 0.0	 0.0	 0.0	 0.0	 0.0; % NG
	35	 0.0	 0.0	 190.0	 -19.0	 1.09545	 426.0	 0	 23	 240.0	 0.0	 0.0	 0.0	 0.0	 0.0	 0.0	 0.0	 0.0	 0.0	 0.0	 0.0; % NG
	35	 0.0	 0.0	 496.0	 -496.0	 1.09545	 426.0	 0	 991	 120.0	 0.0	 0.0	 0.0	 0.0	 0.0	 0.0	 0.0	 0.0	 0.0	 0.0	 0.0; % COW
	35	 290.0	 -229.0	 392.0	 -392.0	 1.09545	 426.0	 1	 783	 120.0	 0.0	 0.0	 0.0	 0.0	 0.0	 0.0	 0.0	 0.0	 0.0	 0.0	 0.0; % COW
	36	 282.0	 -134.0	 292.0	 -292.0	 1.09545	 426.0	 1	 584	 120.0	 0.0	 0.0	 0.0	 0.0	 0.0	 0.0	 0.0	 0.0	 0.0	 0.0	 0.0; % COW
	36	 282.0	 -134.0	 190.0	 -177.0	 1.09545	 426.0	 1	 353	 120.0	 0.0	 0.0	 0.0	 0.0	 0.0	 0.0	 0.0	 0.0	 0.0	 0.0	 0.0; % NG
	37	 287.0	 134.0	 279.0	 -279.0	 1.04	 426.0	 1	 558	 120.0	 0.0	 0.0	 0.0	 0.0	 0.0	 0.0	 0.0	 0.0	 0.0	 0.0	 0.0; % COW
	37	 287.0	 134.0	 190.0	 -176.0	 1.04	 426.0	 1	 352	 120.0	 0.0	 0.0	 0.0	 0.0	 0.0	 0.0	 0.0	 0.0	 0.0	 0.0	 0.0; % COW
	37	 287.0	 134.0	 497.0	 -497.0	 1.04	 426.0	 1	 994	 120.0	 0.0	 0.0	 0.0	 0.0	 0.0	 0.0	 0.0	 0.0	 0.0	 0.0	 0.0; % COW
	38	 284.0	 148.0	 242.0	 -242.0	 1.04	 426.0	 1	 484	 120.0	 0.0	 0.0	 0.0	 0.0	 0.0	 0.0	 0.0	 0.0	 0.0	 0.0	 0.0; % COW
	38	 284.0	 148.0	 267.0	 -267.0	 1.04	 426.0	 1	 533	 120.0	 0.0	 0.0	 0.0	 0.0	 0.0	 0.0	 0.0	 0.0	 0.0	 0.0	 0.0; % NG
	38	 284.0	 148.0	 213.0	 -213.0	 1.04	 426.0	 1	 425	 120.0	 0.0	 0.0	 0.0	 0.0	 0.0	 0.0	 0.0	 0.0	 0.0	 0.0	 0.0; % NG
	55	 160.0	 -7.0	 152.0	 -113.0	 1.09091	 235.0	 1	 226	 55.0	 0.0	 0.0	 0.0	 0.0	 0.0	 0.0	 0.0	 0.0	 0.0	 0.0	 0.0; % NG
	55	 0.0	 0.0	 152.0	 -45.0	 1.09091	 235.0	 0	 89	 62.5	 0.0	 0.0	 0.0	 0.0	 0.0	 0.0	 0.0	 0.0	 0.0	 0.0	 0.0; % NG
	56	 0.0	 0.0	 269.0	 -269.0	 1.09091	 235.0	 0	 538	 62.5	 0.0	 0.0	 0.0	 0.0	 0.0	 0.0	 0.0	 0.0	 0.0	 0.0	 0.0; % COW
	56	 169.0	 99.0	 150.0	 -150.0	 1.09091	 235.0	 1	 300	 55.0	 0.0	 0.0	 0.0	 0.0	 0.0	 0.0	 0.0	 0.0	 0.0	 0.0	 0.0; % NG
	57	 151.0	 -28.0	 149.0	 -115.0	 1.09091	 235.0	 1	 230	 55.0	 0.0	 0.0	 0.0	 0.0	 0.0	 0.0	 0.0	 0.0	 0.0	 0.0	 0.0; % NG
	57	 161.0	 -28.0	 149.0	 -127.0	 1.09091	 235.0	 1	 253	 60.0	 0.0	 0.0	 0.0	 0.0	 0.0	 0.0	 0.0	 0.0	 0.0	 0.0	 0.0; % NG
	58	 297.0	 -130.0	 363.0	 -229.0	 1.035	 588.0	 1	 458	 127.5	 0.0	 0.0	 0.0	 0.0	 0.0	 0.0	 0.0	 0.0	 0.0	 0.0	 0.0; % COW
	59	 292.0	 176.0	 348.0	 -211.2	 1.035	 588.0	 1	 369	 125.0	 0.0	 0.0	 0.0	 0.0	 0.0	 0.0	 0.0	 0.0	 0.0	 0.0	 0.0; % NG
	68	 140.0	 155.0	 186.0	 -186.0	 1.08636	 235.0	 1	 164	 64.5	 0.0	 0.0	 0.0	 0.0	 0.0	 0.0	 0.0	 0.0	 0.0	 0.0	 0.0; % NG
	69	 140.0	 -8.0	 169.0	 -169.0	 1.08636	 235.0	 1	 337	 64.5	 0.0	 0.0	 0.0	 0.0	 0.0	 0.0	 0.0	 0.0	 0.0	 0.0	 0.0; % NG
	69	 140.0	 -8.0	 104.0	 -104.0	 1.08636	 235.0	 1	 208	 64.5	 0.0	 0.0	 0.0	 0.0	 0.0	 0.0	 0.0	 0.0	 0.0	 0.0	 0.0; % NG
	70	 0.0	 0.0	 120.0	 -14.0	 1.0325	 235.0	 0	 23	 129.0	 0.0	 0.0	 0.0	 0.0	 0.0	 0.0	 0.0	 0.0	 0.0	 0.0	 0.0; % NG
	70	 0.0	 0.0	 120.0	 -14.0	 1.0325	 235.0	 0	 16	 129.0	 0.0	 0.0	 0.0	 0.0	 0.0	 0.0	 0.0	 0.0	 0.0	 0.0	 0.0; % NG
	71	 353.0	 101.0	 217.0	 -217.0	 1.0325	 235.0	 1	 434	 64.5	 0.0	 0.0	 0.0	 0.0	 0.0	 0.0	 0.0	 0.0	 0.0	 0.0	 0.0; % NG
	71	 353.0	 101.0	 199.0	 -199.0	 1.0325	 235.0	 1	 398	 64.5	 0.0	 0.0	 0.0	 0.0	 0.0	 0.0	 0.0	 0.0	 0.0	 0.0	 0.0; % NG
	92	 205.0	 174.0	 208.8	 -208.8	 1.08182	 271.0	 1	 379	 70.0	 0.0	 0.0	 0.0	 0.0	 0.0	 0.0	 0.0	 0.0	 0.0	 0.0	 0.0; % NG
	92	 205.0	 174.0	 208.8	 -208.8	 1.08182	 271.0	 1	 342	 70.0	 0.0	 0.0	 0.0	 0.0	 0.0	 0.0	 0.0	 0.0	 0.0	 0.0	 0.0; % NG
	93	 0.0	 0.0	 131.0	 -6.0	 1.08182	 271.0	 0	 5	 140.0	 0.0	 0.0	 0.0	 0.0	 0.0	 0.0	 0.0	 0.0	 0.0	 0.0	 0.0; % NG
	93	 223.0	 254.0	 304.8	 -304.8	 1.08182	 271.0	 1	 374	 70.0	 0.0	 0.0	 0.0	 0.0	 0.0	 0.0	 0.0	 0.0	 0.0	 0.0	 0.0; % NG
	93	 223.0	 254.0	 304.8	 -304.8	 1.08182	 271.0	 1	 264	 70.0	 0.0	 0.0	 0.0	 0.0	 0.0	 0.0	 0.0	 0.0	 0.0	 0.0	 0.0; % NG
	96	 202.0	 -21.0	 213.0	 -103.0	 1.0375	 426.0	 1	 206	 90.0	 0.0	 0.0	 0.0	 0.0	 0.0	 0.0	 0.0	 0.0	 0.0	 0.0	 0.0; % NG
	96	 202.0	 -21.0	 218.0	 -218.0	 1.0375	 435.0	 1	 436	 90.0	 0.0	 0.0	 0.0	 0.0	 0.0	 0.0	 0.0	 0.0	 0.0	 0.0	 0.0; % NG
	113	 0.0	 0.0	 17.0	 -17.0	 1.07727	 12.0	 0	 34	 0.0	 0.0	 0.0	 0.0	 0.0	 0.0	 0.0	 0.0	 0.0	 0.0	 0.0	 0.0; % NG
	113	 0.0	 0.0	 15.0	 -15.0	 1.07727	 6.0	 0	 30	 0.0	 0.0	 0.0	 0.0	 0.0	 0.0	 0.0	 0.0	 0.0	 0.0	 0.0	 0.0; % NG
	113	 100.0	 -285.0	 342.0	 -342.0	 1.07727	 26.0	 1	 110	 0.0	 0.0	 0.0	 0.0	 0.0	 0.0	 0.0	 0.0	 0.0	 0.0	 0.0	 0.0; % PEL
	119	 170.0	 -168.0	 201.6	 -201.6	 1.08182	 271.0	 1	 216	 60.0	 0.0	 0.0	 0.0	 0.0	 0.0	 0.0	 0.0	 0.0	 0.0	 0.0	 0.0; % NG
	120	 189.0	 153.0	 200.0	 -200.0	 1.08182	 271.0	 1	 399	 60.0	 0.0	 0.0	 0.0	 0.0	 0.0	 0.0	 0.0	 0.0	 0.0	 0.0	 0.0; % NG
	121	 108.0	 -84.0	 100.8	 -100.8	 1.08182	 150.0	 1	 109	 35.0	 0.0	 0.0	 0.0	 0.0	 0.0	 0.0	 0.0	 0.0	 0.0	 0.0	 0.0; % NG
	122	 107.0	 -45.0	 93.0	 -93.0	 1.08182	 150.0	 1	 185	 35.0	 0.0	 0.0	 0.0	 0.0	 0.0	 0.0	 0.0	 0.0	 0.0	 0.0	 0.0; % NG
	132	 0.0	 0.0	 79.0	 -9.0	 1.07727	 150.0	 0	 18	 70.0	 0.0	 0.0	 0.0	 0.0	 0.0	 0.0	 0.0	 0.0	 0.0	 0.0	 0.0; % NG
	133	 280.0	 834.0	 1000.8	 -1000.8	 1.07727	 150.0	 1	 429	 35.0	 0.0	 0.0	 0.0	 0.0	 0.0	 0.0	 0.0	 0.0	 0.0	 0.0	 0.0; % COW
	134	 191.0	 -327.0	 392.4	 -392.4	 1.07273	 118.0	 1	 527	 40.0	 0.0	 0.0	 0.0	 0.0	 0.0	 0.0	 0.0	 0.0	 0.0	 0.0	 0.0; % NG
	142	 206.0	 492.0	 590.4	 -590.4	 1.08182	 271.0	 1	 289	 67.5	 0.0	 0.0	 0.0	 0.0	 0.0	 0.0	 0.0	 0.0	 0.0	 0.0	 0.0; % NG
	143	 217.0	 223.0	 267.6	 -267.6	 1.08182	 271.0	 1	 423	 67.5	 0.0	 0.0	 0.0	 0.0	 0.0	 0.0	 0.0	 0.0	 0.0	 0.0	 0.0; % NG
	143	 217.0	 223.0	 267.6	 -267.6	 1.08182	 271.0	 1	 226	 67.5	 0.0	 0.0	 0.0	 0.0	 0.0	 0.0	 0.0	 0.0	 0.0	 0.0	 0.0; % NG
	144	 192.0	 141.0	 169.2	 -169.2	 1.0375	 271.0	 1	 277	 67.5	 0.0	 0.0	 0.0	 0.0	 0.0	 0.0	 0.0	 0.0	 0.0	 0.0	 0.0; % NG
	144	 192.0	 141.0	 169.2	 -169.2	 1.0375	 271.0	 1	 225	 67.5	 0.0	 0.0	 0.0	 0.0	 0.0	 0.0	 0.0	 0.0	 0.0	 0.0	 0.0; % NG
	150	 0.0	 0.0	 107.0	 -107.0	 1.04091	 150.0	 0	 214	 -135.0	 0.0	 0.0	 0.0	 0.0	 0.0	 0.0	 0.0	 0.0	 0.0	 0.0	 0.0; % NG
	150	 0.0	 0.0	 140.0	 -140.0	 1.04091	 150.0	 0	 279	 -135.0	 0.0	 0.0	 0.0	 0.0	 0.0	 0.0	 0.0	 0.0	 0.0	 0.0	 0.0; % NG
	151	 0.0	 0.0	 72.0	 -29.0	 1.04091	 150.0	 0	 35	 -135.0	 0.0	 0.0	 0.0	 0.0	 0.0	 0.0	 0.0	 0.0	 0.0	 0.0	 0.0; % NG
	151	 0.0	 0.0	 72.0	 -30.0	 1.04091	 150.0	 0	 60	 -135.0	 0.0	 0.0	 0.0	 0.0	 0.0	 0.0	 0.0	 0.0	 0.0	 0.0	 0.0; % NG
	152	 135.0	 82.0	 185.0	 -185.0	 1.06818	 150.0	 1	 370	 50.0	 0.0	 0.0	 0.0	 0.0	 0.0	 0.0	 0.0	 0.0	 0.0	 0.0	 0.0; % COW
	152	 0.0	 0.0	 85.0	 -21.0	 1.06818	 150.0	 0	 41	 100.0	 0.0	 0.0	 0.0	 0.0	 0.0	 0.0	 0.0	 0.0	 0.0	 0.0	 0.0; % NG
	153	 135.0	 63.0	 110.0	 -110.0	 1.06818	 150.0	 1	 220	 50.0	 0.0	 0.0	 0.0	 0.0	 0.0	 0.0	 0.0	 0.0	 0.0	 0.0	 0.0; % NG
	167	 0.0	 0.0	 18.0	 -18.0	 1.05	 51.0	 0	 35	 20.0	 0.0	 0.0	 0.0	 0.0	 0.0	 0.0	 0.0	 0.0	 0.0	 0.0	 0.0; % NG
	169	 244.0	 90.0	 163.0	 -163.0	 1.08182	 238.0	 1	 326	 67.5	 0.0	 0.0	 0.0	 0.0	 0.0	 0.0	 0.0	 0.0	 0.0	 0.0	 0.0; % NG
	170	 0.0	 0.0	 102.0	 -58.0	 1.08182	 252.0	 0	 116	 45.0	 0.0	 0.0	 0.0	 0.0	 0.0	 0.0	 0.0	 0.0	 0.0	 0.0	 0.0; % NG
	170	 0.0	 0.0	 111.0	 -21.0	 1.08182	 238.0	 0	 20	 135.0	 0.0	 0.0	 0.0	 0.0	 0.0	 0.0	 0.0	 0.0	 0.0	 0.0	 0.0; % NG
	170	 198.0	 -23.0	 144.0	 -144.0	 1.08182	 252.0	 1	 288	 50.0	 0.0	 0.0	 0.0	 0.0	 0.0	 0.0	 0.0	 0.0	 0.0	 0.0	 0.0; % NG
	171	 152.0	 73.0	 123.0	 -123.0	 1.0325	 252.0	 1	 245	 45.0	 0.0	 0.0	 0.0	 0.0	 0.0	 0.0	 0.0	 0.0	 0.0	 0.0	 0.0; % NG
	172	 0.0	 0.0	 93.0	 -10.0	 1.0325	 252.0	 0	 8	 100.0	 0.0	 0.0	 0.0	 0.0	 0.0	 0.0	 0.0	 0.0	 0.0	 0.0	 0.0; % COW
	172	 145.0	 24.0	 137.0	 -137.0	 1.0325	 252.0	 1	 273	 45.0	 0.0	 0.0	 0.0	 0.0	 0.0	 0.0	 0.0	 0.0	 0.0	 0.0	 0.0; % NG
	177	 130.0	 119.0	 262.0	 -262.0	 1.09091	 287.0	 1	 524	 52.0	 0.0	 0.0	 0.0	 0.0	 0.0	 0.0	 0.0	 0.0	 0.0	 0.0	 0.0; % COW
	177	 120.0	 119.0	 277.0	 -277.0	 1.09091	 264.0	 1	 553	 47.0	 0.0	 0.0	 0.0	 0.0	 0.0	 0.0	 0.0	 0.0	 0.0	 0.0	 0.0; % NG
	178	 0.0	 0.0	 177.0	 -177.0	 1.09091	 238.0	 0	 354	 60.0	 0.0	 0.0	 0.0	 0.0	 0.0	 0.0	 0.0	 0.0	 0.0	 0.0	 0.0; % NG
	178	 119.0	 88.0	 150.0	 -150.0	 1.09091	 264.0	 1	 299	 47.0	 0.0	 0.0	 0.0	 0.0	 0.0	 0.0	 0.0	 0.0	 0.0	 0.0	 0.0; % NG
	178	 129.0	 88.0	 170.0	 -170.0	 1.09091	 287.0	 1	 339	 52.0	 0.0	 0.0	 0.0	 0.0	 0.0	 0.0	 0.0	 0.0	 0.0	 0.0	 0.0; % COW
	178	 129.0	 88.0	 143.0	 -143.0	 1.09091	 287.0	 1	 285	 52.0	 0.0	 0.0	 0.0	 0.0	 0.0	 0.0	 0.0	 0.0	 0.0	 0.0	 0.0; % NG
	180	 143.0	 38.0	 196.0	 -196.0	 1.03	 238.0	 1	 391	 60.0	 0.0	 0.0	 0.0	 0.0	 0.0	 0.0	 0.0	 0.0	 0.0	 0.0	 0.0; % NG
	180	 143.0	 38.0	 103.0	 -84.0	 1.03	 238.0	 1	 167	 60.0	 0.0	 0.0	 0.0	 0.0	 0.0	 0.0	 0.0	 0.0	 0.0	 0.0	 0.0; % NG
	188	 191.0	 -94.0	 175.0	 -175.0	 1.05455	 233.0	 1	 350	 75.0	 0.0	 0.0	 0.0	 0.0	 0.0	 0.0	 0.0	 0.0	 0.0	 0.0	 0.0; % NG
	189	 193.0	 73.0	 275.0	 -275.0	 1.05455	 233.0	 1	 549	 75.0	 0.0	 0.0	 0.0	 0.0	 0.0	 0.0	 0.0	 0.0	 0.0	 0.0	 0.0; % NG
	189	 0.0	 0.0	 112.0	 -76.0	 1.05455	 233.0	 0	 151	 75.0	 0.0	 0.0	 0.0	 0.0	 0.0	 0.0	 0.0	 0.0	 0.0	 0.0	 0.0; % NG
	189	 193.0	 73.0	 236.0	 -236.0	 1.05455	 233.0	 1	 471	 75.0	 0.0	 0.0	 0.0	 0.0	 0.0	 0.0	 0.0	 0.0	 0.0	 0.0	 0.0; % NG
	190	 222.0	 264.0	 294.0	 -316.8	 1.005	 464.0	 1	 445	 93.0	 0.0	 0.0	 0.0	 0.0	 0.0	 0.0	 0.0	 0.0	 0.0	 0.0	 0.0; % COW
	204	 0.0	 0.0	 100.0	 -46.0	 1.0	 218.0	 0	 91	 38.0	 0.0	 0.0	 0.0	 0.0	 0.0	 0.0	 0.0	 0.0	 0.0	 0.0	 0.0; % NG
	236	 0.0	 -14.0	 105.0	 -77.0	 1.0375	 209.0	 1	 153	 -200.0	 0.0	 0.0	 0.0	 0.0	 0.0	 0.0	 0.0	 0.0	 0.0	 0.0	 0.0; % NG
	236	 0.0	 -14.0	 105.0	 -62.0	 1.0375	 209.0	 1	 78	 -200.0	 0.0	 0.0	 0.0	 0.0	 0.0	 0.0	 0.0	 0.0	 0.0	 0.0	 0.0; % COW
	236	 0.0	 -14.0	 130.0	 -75.0	 1.0375	 209.0	 1	 55	 -200.0	 0.0	 0.0	 0.0	 0.0	 0.0	 0.0	 0.0	 0.0	 0.0	 0.0	 0.0; % COW
	237	 0.0	 -10.0	 160.0	 -100.0	 1.0375	 209.0	 1	 163	 -200.0	 0.0	 0.0	 0.0	 0.0	 0.0	 0.0	 0.0	 0.0	 0.0	 0.0	 0.0; % COW
	240	 134.0	 13.0	 150.0	 -94.0	 1.09091	 156.0	 1	 187	 56.5	 0.0	 0.0	 0.0	 0.0	 0.0	 0.0	 0.0	 0.0	 0.0	 0.0	 0.0; % NG
	250	 0.0	 0.0	 67.0	 -67.0	 1.08182	 79.0	 0	 134	 11.5	 0.0	 0.0	 0.0	 0.0	 0.0	 0.0	 0.0	 0.0	 0.0	 0.0	 0.0; % NG
	250	 0.0	 0.0	 20.0	 -3.0	 1.08182	 69.0	 0	 5	 25.0	 0.0	 0.0	 0.0	 0.0	 0.0	 0.0	 0.0	 0.0	 0.0	 0.0	 0.0; % NG
	251	 104.0	 -25.0	 99.0	 -99.0	 1.08182	 28.0	 1	 197	 3.5	 0.0	 0.0	 0.0	 0.0	 0.0	 0.0	 0.0	 0.0	 0.0	 0.0	 0.0; % NG
	251	 0.0	 0.0	 20.0	 -12.0	 1.08182	 69.0	 0	 23	 12.5	 0.0	 0.0	 0.0	 0.0	 0.0	 0.0	 0.0	 0.0	 0.0	 0.0	 0.0; % NG
	267	 16.0	 -8.0	 11.0	 -11.0	 1.07273	 1.0	 1	 22	 0.0	 0.0	 0.0	 0.0	 0.0	 0.0	 0.0	 0.0	 0.0	 0.0	 0.0	 0.0; % PEL
	268	 36.0	 -6.0	 31.0	 -31.0	 1.06364	 1.0	 1	 61	 0.0	 0.0	 0.0	 0.0	 0.0	 0.0	 0.0	 0.0	 0.0	 0.0	 0.0	 0.0; % PEL
	282	 0.0	 0.0	 33.0	 -33.0	 1.07273	 10.0	 0	 65	 3.0	 0.0	 0.0	 0.0	 0.0	 0.0	 0.0	 0.0	 0.0	 0.0	 0.0	 0.0; % NG
	283	 0.0	 0.0	 167.0	 -167.0	 1.07273	 10.0	 0	 333	 3.0	 0.0	 0.0	 0.0	 0.0	 0.0	 0.0	 0.0	 0.0	 0.0	 0.0	 0.0; % NG
	301	 31.0	 -1.0	 74.0	 -74.0	 1.04545	 5.0	 1	 148	 0.5	 0.0	 0.0	 0.0	 0.0	 0.0	 0.0	 0.0	 0.0	 0.0	 0.0	 0.0; % COW
	301	 31.0	 -1.0	 34.0	 -34.0	 1.04545	 5.0	 1	 68	 0.5	 0.0	 0.0	 0.0	 0.0	 0.0	 0.0	 0.0	 0.0	 0.0	 0.0	 0.0; % NG
	301	 31.0	 -1.0	 20.0	 -20.0	 1.04545	 5.0	 1	 39	 0.5	 0.0	 0.0	 0.0	 0.0	 0.0	 0.0	 0.0	 0.0	 0.0	 0.0	 0.0; % PEL
	302	 31.0	 7.0	 54.0	 -54.0	 1.04545	 5.0	 1	 108	 0.5	 0.0	 0.0	 0.0	 0.0	 0.0	 0.0	 0.0	 0.0	 0.0	 0.0	 0.0; % COW
	316	 275.0	 192.0	 230.4	 -230.4	 1.0	 426.0	 1	 305	 120.0	 0.0	 0.0	 0.0	 0.0	 0.0	 0.0	 0.0	 0.0	 0.0	 0.0	 0.0; % NG
	322	 0.0	 0.0	 35.0	 -35.0	 1.03636	 4.0	 0	 70	 0.5	 0.0	 0.0	 0.0	 0.0	 0.0	 0.0	 0.0	 0.0	 0.0	 0.0	 0.0; % NG
	322	 0.0	 0.0	 6.0	 -6.0	 1.03636	 4.0	 0	 11	 0.5	 0.0	 0.0	 0.0	 0.0	 0.0	 0.0	 0.0	 0.0	 0.0	 0.0	 0.0; % NG
	369	 27.0	 12.0	 15.0	 -15.0	 1.07273	 30.0	 1	 30	 0.0	 0.0	 0.0	 0.0	 0.0	 0.0	 0.0	 0.0	 0.0	 0.0	 0.0	 0.0; % NG
	398	 0.0	 0.0	 511.0	 -511.0	 1.08182	 8.0	 0	 1021	 2.5	 0.0	 0.0	 0.0	 0.0	 0.0	 0.0	 0.0	 0.0	 0.0	 0.0	 0.0; % COW
	402	 24.0	 -2.0	 18.0	 -18.0	 1.08182	 1.0	 1	 36	 0.0	 0.0	 0.0	 0.0	 0.0	 0.0	 0.0	 0.0	 0.0	 0.0	 0.0	 0.0; % PEL
	402	 24.0	 -2.0	 43.0	 -43.0	 1.08182	 1.0	 1	 85	 0.0	 0.0	 0.0	 0.0	 0.0	 0.0	 0.0	 0.0	 0.0	 0.0	 0.0	 0.0; % PEL
	402	 24.0	 -2.0	 35.0	 -35.0	 1.08182	 1.0	 1	 70	 0.0	 0.0	 0.0	 0.0	 0.0	 0.0	 0.0	 0.0	 0.0	 0.0	 0.0	 0.0; % PEL
	409	 0.0	 0.0	 98.0	 -98.0	 1.07545	 31.0	 0	 195	 5.5	 0.0	 0.0	 0.0	 0.0	 0.0	 0.0	 0.0	 0.0	 0.0	 0.0	 0.0; % NG
	409	 67.0	 16.0	 51.0	 -51.0	 1.07545	 39.0	 1	 101	 5.5	 0.0	 0.0	 0.0	 0.0	 0.0	 0.0	 0.0	 0.0	 0.0	 0.0	 0.0; % NG
	409	 0.0	 0.0	 60.0	 -60.0	 1.07545	 41.0	 0	 120	 4.5	 0.0	 0.0	 0.0	 0.0	 0.0	 0.0	 0.0	 0.0	 0.0	 0.0	 0.0; % NG
	411	 0.0	 0.0	 21.0	 -21.0	 1.07273	 69.0	 0	 41	 10.0	 0.0	 0.0	 0.0	 0.0	 0.0	 0.0	 0.0	 0.0	 0.0	 0.0	 0.0; % NG
	411	 114.0	 25.0	 145.0	 -145.0	 1.07273	 69.0	 1	 290	 10.0	 0.0	 0.0	 0.0	 0.0	 0.0	 0.0	 0.0	 0.0	 0.0	 0.0	 0.0; % NG
	412	 0.0	 0.0	 63.0	 -63.0	 1.07273	 49.0	 0	 126	 5.0	 0.0	 0.0	 0.0	 0.0	 0.0	 0.0	 0.0	 0.0	 0.0	 0.0	 0.0; % NG
	412	 0.0	 0.0	 74.0	 -74.0	 1.07273	 69.0	 0	 147	 10.0	 0.0	 0.0	 0.0	 0.0	 0.0	 0.0	 0.0	 0.0	 0.0	 0.0	 0.0; % NG
	414	 0.0	 0.0	 20.0	 -12.0	 1.07273	 69.0	 0	 24	 12.5	 0.0	 0.0	 0.0	 0.0	 0.0	 0.0	 0.0	 0.0	 0.0	 0.0	 0.0; % NG
	414	 0.0	 0.0	 20.0	 0.0	 1.07273	 147.0	 0	 0	 55.0	 0.0	 0.0	 0.0	 0.0	 0.0	 0.0	 0.0	 0.0	 0.0	 0.0	 0.0; % SYNC
	415	 69.0	 24.0	 80.0	 -80.0	 1.07273	 69.0	 1	 160	 12.5	 0.0	 0.0	 0.0	 0.0	 0.0	 0.0	 0.0	 0.0	 0.0	 0.0	 0.0; % PEL
	428	 72.0	 22.0	 42.0	 -42.0	 1.07273	 4.0	 1	 83	 1.0	 0.0	 0.0	 0.0	 0.0	 0.0	 0.0	 0.0	 0.0	 0.0	 0.0	 0.0; % NG
	466	 0.0	 0.0	 13.0	 -13.0	 1.06364	 2.0	 0	 26	 0.5	 0.0	 0.0	 0.0	 0.0	 0.0	 0.0	 0.0	 0.0	 0.0	 0.0	 0.0; % PEL
	492	 91.0	 15.0	 57.0	 -55.0	 1.07273	 69.0	 1	 110	 7.5	 0.0	 0.0	 0.0	 0.0	 0.0	 0.0	 0.0	 0.0	 0.0	 0.0	 0.0; % NG
	493	 74.0	 10.0	 62.0	 -62.0	 1.07273	 69.0	 1	 123	 7.5	 0.0	 0.0	 0.0	 0.0	 0.0	 0.0	 0.0	 0.0	 0.0	 0.0	 0.0; % NG
	494	 53.0	 9.0	 111.0	 -111.0	 1.08182	 69.0	 1	 221	 7.5	 0.0	 0.0	 0.0	 0.0	 0.0	 0.0	 0.0	 0.0	 0.0	 0.0	 0.0; % NG
	494	 53.0	 9.0	 57.0	 -27.0	 1.08182	 69.0	 1	 53	 7.5	 0.0	 0.0	 0.0	 0.0	 0.0	 0.0	 0.0	 0.0	 0.0	 0.0	 0.0; % PEL
	495	 61.0	 12.0	 57.0	 -37.0	 1.07273	 69.0	 1	 74	 7.5	 0.0	 0.0	 0.0	 0.0	 0.0	 0.0	 0.0	 0.0	 0.0	 0.0	 0.0; % NG
	495	 49.0	 12.0	 71.0	 -50.0	 1.07273	 88.0	 1	 99	 1.5	 0.0	 0.0	 0.0	 0.0	 0.0	 0.0	 0.0	 0.0	 0.0	 0.0	 0.0; % PEL
	517	 141.0	 -23.0	 162.0	 -124.0	 1.09091	 235.0	 1	 247	 60.0	 0.0	 0.0	 0.0	 0.0	 0.0	 0.0	 0.0	 0.0	 0.0	 0.0	 0.0; % NG
	517	 0.0	 0.0	 24.0	 -24.0	 1.09091	 49.0	 0	 48	 6.0	 0.0	 0.0	 0.0	 0.0	 0.0	 0.0	 0.0	 0.0	 0.0	 0.0	 0.0; % NG
	518	 64.0	 -3.0	 32.0	 -32.0	 1.1	 49.0	 1	 64	 5.0	 0.0	 0.0	 0.0	 0.0	 0.0	 0.0	 0.0	 0.0	 0.0	 0.0	 0.0; % NG
	522	 0.0	 0.0	 58.0	 -58.0	 1.06364	 6.0	 0	 115	 2.0	 0.0	 0.0	 0.0	 0.0	 0.0	 0.0	 0.0	 0.0	 0.0	 0.0	 0.0; % PEL
	542	 0.0	 2.0	 2.4	 -2.4	 1.08182	 0.0	 1	 0	 0.0	 0.0	 0.0	 0.0	 0.0	 0.0	 0.0	 0.0	 0.0	 0.0	 0.0	 0.0; % SYNC
	571	 0.0	 0.0	 1359.0	 -1359.0	 1.04545	 8.0	 0	 2717	 1.5	 0.0	 0.0	 0.0	 0.0	 0.0	 0.0	 0.0	 0.0	 0.0	 0.0	 0.0; % COW
	580	 0.0	 0.0	 8.0	 -8.0	 1.08182	 5.0	 0	 16	 1.5	 0.0	 0.0	 0.0	 0.0	 0.0	 0.0	 0.0	 0.0	 0.0	 0.0	 0.0; % PEL
	587	 34.0	 -7.0	 66.0	 -66.0	 1.06364	 7.0	 1	 132	 0.5	 0.0	 0.0	 0.0	 0.0	 0.0	 0.0	 0.0	 0.0	 0.0	 0.0	 0.0; % NG
	587	 34.0	 -7.0	 59.0	 -59.0	 1.06364	 7.0	 1	 118	 0.5	 0.0	 0.0	 0.0	 0.0	 0.0	 0.0	 0.0	 0.0	 0.0	 0.0	 0.0; % NG
	587	 0.0	 0.0	 26.0	 -26.0	 1.06364	 7.0	 0	 52	 0.5	 0.0	 0.0	 0.0	 0.0	 0.0	 0.0	 0.0	 0.0	 0.0	 0.0	 0.0; % COW
	599	 54.0	 14.0	 99.0	 -99.0	 1.07273	 4.0	 1	 197	 1.0	 0.0	 0.0	 0.0	 0.0	 0.0	 0.0	 0.0	 0.0	 0.0	 0.0	 0.0; % NG
	633	 0.0	 0.0	 10.0	 -10.0	 1.02727	 5.0	 0	 19	 1.5	 0.0	 0.0	 0.0	 0.0	 0.0	 0.0	 0.0	 0.0	 0.0	 0.0	 0.0; % NG
	663	 54.0	 9.0	 49.0	 -49.0	 1.05455	 2.0	 1	 97	 0.5	 0.0	 0.0	 0.0	 0.0	 0.0	 0.0	 0.0	 0.0	 0.0	 0.0	 0.0; % PEL
	663	 0.0	 0.0	 3.0	 -3.0	 1.05455	 2.0	 0	 6	 0.5	 0.0	 0.0	 0.0	 0.0	 0.0	 0.0	 0.0	 0.0	 0.0	 0.0	 0.0; % PEL
	669	 0.0	 0.0	 25.0	 -25.0	 1.06364	 6.0	 0	 49	 1.5	 0.0	 0.0	 0.0	 0.0	 0.0	 0.0	 0.0	 0.0	 0.0	 0.0	 0.0; % NG
	740	 75.0	 45.0	 71.0	 -71.0	 1.05455	 63.0	 1	 142	 18.5	 0.0	 0.0	 0.0	 0.0	 0.0	 0.0	 0.0	 0.0	 0.0	 0.0	 0.0; % NG
	740	 0.0	 0.0	 139.0	 -139.0	 1.05455	 38.0	 0	 277	 5.0	 0.0	 0.0	 0.0	 0.0	 0.0	 0.0	 0.0	 0.0	 0.0	 0.0	 0.0; % NG
	740	 0.0	 0.0	 85.0	 -16.0	 1.05455	 150.0	 0	 32	 25.0	 0.0	 0.0	 0.0	 0.0	 0.0	 0.0	 0.0	 0.0	 0.0	 0.0	 0.0; % NG
	740	 88.0	 45.0	 85.0	 -54.0	 1.05455	 150.0	 1	 88	 25.0	 0.0	 0.0	 0.0	 0.0	 0.0	 0.0	 0.0	 0.0	 0.0	 0.0	 0.0; % NG
	741	 0.0	 0.0	 89.0	 -89.0	 1.05455	 38.0	 0	 178	 5.0	 0.0	 0.0	 0.0	 0.0	 0.0	 0.0	 0.0	 0.0	 0.0	 0.0	 0.0; % NG
	741	 0.0	 0.0	 23.0	 -5.0	 1.05455	 38.0	 0	 9	 5.0	 0.0	 0.0	 0.0	 0.0	 0.0	 0.0	 0.0	 0.0	 0.0	 0.0	 0.0; % NG
	741	 65.0	 44.0	 52.8	 -52.8	 1.05455	 38.0	 1	 78	 5.0	 0.0	 0.0	 0.0	 0.0	 0.0	 0.0	 0.0	 0.0	 0.0	 0.0	 0.0; % PEL
	741	 123.0	 44.0	 85.0	 -83.0	 1.05455	 150.0	 1	 165	 34.0	 0.0	 0.0	 0.0	 0.0	 0.0	 0.0	 0.0	 0.0	 0.0	 0.0	 0.0; % NG
	741	 0.0	 0.0	 85.0	 -55.0	 1.05455	 150.0	 0	 110	 25.0	 0.0	 0.0	 0.0	 0.0	 0.0	 0.0	 0.0	 0.0	 0.0	 0.0	 0.0; % COW
	762	 60.0	 -7.0	 59.0	 -59.0	 1.04545	 2.0	 1	 117	 0.5	 0.0	 0.0	 0.0	 0.0	 0.0	 0.0	 0.0	 0.0	 0.0	 0.0	 0.0; % PEL
	764	 39.0	 12.0	 88.0	 -88.0	 1.06364	 4.0	 1	 175	 0.0	 0.0	 0.0	 0.0	 0.0	 0.0	 0.0	 0.0	 0.0	 0.0	 0.0	 0.0; % PEL
	772	 0.0	 0.0	 114.0	 -114.0	 1.05455	 38.0	 0	 228	 4.5	 0.0	 0.0	 0.0	 0.0	 0.0	 0.0	 0.0	 0.0	 0.0	 0.0	 0.0; % COW
	772	 146.0	 50.0	 181.0	 -181.0	 1.05455	 38.0	 1	 362	 4.5	 0.0	 0.0	 0.0	 0.0	 0.0	 0.0	 0.0	 0.0	 0.0	 0.0	 0.0; % NG
	773	 0.0	 0.0	 125.0	 -125.0	 1.05455	 38.0	 0	 249	 4.5	 0.0	 0.0	 0.0	 0.0	 0.0	 0.0	 0.0	 0.0	 0.0	 0.0	 0.0; % NG
	773	 0.0	 0.0	 25.0	 -25.0	 1.05455	 38.0	 0	 49	 4.5	 0.0	 0.0	 0.0	 0.0	 0.0	 0.0	 0.0	 0.0	 0.0	 0.0	 0.0; % PEL
	773	 0.0	 0.0	 66.0	 -66.0	 1.05455	 38.0	 0	 132	 4.5	 0.0	 0.0	 0.0	 0.0	 0.0	 0.0	 0.0	 0.0	 0.0	 0.0	 0.0; % PEL
	773	 246.0	 102.0	 195.0	 -195.0	 1.05455	 121.0	 1	 389	 15.0	 0.0	 0.0	 0.0	 0.0	 0.0	 0.0	 0.0	 0.0	 0.0	 0.0	 0.0; % NG
	774	 0.0	 0.0	 18.0	 -2.0	 1.05455	 38.0	 0	 4	 9.0	 0.0	 0.0	 0.0	 0.0	 0.0	 0.0	 0.0	 0.0	 0.0	 0.0	 0.0; % PEL
	774	 0.0	 0.0	 18.0	 -11.0	 1.05455	 38.0	 0	 22	 4.5	 0.0	 0.0	 0.0	 0.0	 0.0	 0.0	 0.0	 0.0	 0.0	 0.0	 0.0; % PEL
	774	 0.0	 0.0	 51.0	 -51.0	 1.05455	 32.0	 0	 102	 4.5	 0.0	 0.0	 0.0	 0.0	 0.0	 0.0	 0.0	 0.0	 0.0	 0.0	 0.0; % NG
	809	 56.0	 -24.0	 77.0	 -77.0	 1.07273	 5.0	 1	 154	 0.5	 0.0	 0.0	 0.0	 0.0	 0.0	 0.0	 0.0	 0.0	 0.0	 0.0	 0.0; % NG
	809	 0.0	 0.0	 13.0	 -13.0	 1.07273	 2.0	 0	 26	 0.5	 0.0	 0.0	 0.0	 0.0	 0.0	 0.0	 0.0	 0.0	 0.0	 0.0	 0.0; % PEL
	829	 0.0	 0.0	 60.0	 -60.0	 1.04545	 6.0	 0	 120	 2.0	 0.0	 0.0	 0.0	 0.0	 0.0	 0.0	 0.0	 0.0	 0.0	 0.0	 0.0; % NG
	844	 19.0	 10.0	 31.0	 -31.0	 1.07273	 6.0	 1	 62	 0.0	 0.0	 0.0	 0.0	 0.0	 0.0	 0.0	 0.0	 0.0	 0.0	 0.0	 0.0; % PEL
	853	 0.0	 0.0	 39.0	 -39.0	 1.06364	 4.0	 0	 78	 0.0	 0.0	 0.0	 0.0	 0.0	 0.0	 0.0	 0.0	 0.0	 0.0	 0.0	 0.0; % NG
	876	 13.0	 -30.0	 30.0	 -36.0	 1.08182	 65.0	 1	 25	 0.0	 0.0	 0.0	 0.0	 0.0	 0.0	 0.0	 0.0	 0.0	 0.0	 0.0	 0.0; % NG
	876	 13.0	 -30.0	 30.0	 -36.0	 1.08182	 65.0	 1	 52	 0.0	 0.0	 0.0	 0.0	 0.0	 0.0	 0.0	 0.0	 0.0	 0.0	 0.0	 0.0; % PEL
	879	 0.0	 0.0	 23.0	 -23.0	 1.06364	 12.0	 0	 45	 0.0	 0.0	 0.0	 0.0	 0.0	 0.0	 0.0	 0.0	 0.0	 0.0	 0.0	 0.0; % NG
	886	 0.0	 0.0	 76.0	 -76.0	 1.08182	 5.0	 0	 151	 0.0	 0.0	 0.0	 0.0	 0.0	 0.0	 0.0	 0.0	 0.0	 0.0	 0.0	 0.0; % NG
	887	 0.0	 0.0	 49.0	 -49.0	 1.08182	 6.0	 0	 97	 0.0	 0.0	 0.0	 0.0	 0.0	 0.0	 0.0	 0.0	 0.0	 0.0	 0.0	 0.0; % NG
	922	 178.0	 75.0	 149.0	 -147.0	 1.09091	 235.0	 1	 293	 67.5	 0.0	 0.0	 0.0	 0.0	 0.0	 0.0	 0.0	 0.0	 0.0	 0.0	 0.0; % NG
	923	 0.0	 0.0	 149.0	 -33.0	 1.09091	 235.0	 0	 51	 110.0	 0.0	 0.0	 0.0	 0.0	 0.0	 0.0	 0.0	 0.0	 0.0	 0.0	 0.0; % NG
	931	 0.0	 0.0	 4.0	 -4.0	 1.07273	 3.0	 0	 7	 0.0	 0.0	 0.0	 0.0	 0.0	 0.0	 0.0	 0.0	 0.0	 0.0	 0.0	 0.0; % PEL
	937	 0.0	 0.0	 56.0	 -56.0	 1.07273	 12.0	 0	 111	 0.0	 0.0	 0.0	 0.0	 0.0	 0.0	 0.0	 0.0	 0.0	 0.0	 0.0	 0.0; % COW
	947	 0.0	 0.0	 30.0	 -20.0	 1.07273	 168.0	 0	 40	 33.0	 0.0	 0.0	 0.0	 0.0	 0.0	 0.0	 0.0	 0.0	 0.0	 0.0	 0.0; % NG
	947	 0.0	 0.0	 30.0	 -29.0	 1.07273	 72.0	 0	 57	 17.0	 0.0	 0.0	 0.0	 0.0	 0.0	 0.0	 0.0	 0.0	 0.0	 0.0	 0.0; % NG
	953	 0.0	 0.0	 15.0	 -15.0	 1.07273	 8.0	 0	 29	 0.0	 0.0	 0.0	 0.0	 0.0	 0.0	 0.0	 0.0	 0.0	 0.0	 0.0	 0.0; % PEL
	967	 0.0	 0.0	 6.0	 -6.0	 1.07273	 6.0	 0	 12	 0.0	 0.0	 0.0	 0.0	 0.0	 0.0	 0.0	 0.0	 0.0	 0.0	 0.0	 0.0; % NG
	970	 0.0	 0.0	 101.0	 -101.0	 1.08182	 3.0	 0	 202	 0.0	 0.0	 0.0	 0.0	 0.0	 0.0	 0.0	 0.0	 0.0	 0.0	 0.0	 0.0; % NG
	985	 2.0	 49.0	 58.8	 -58.8	 1.08182	 3.0	 1	 8	 0.0	 0.0	 0.0	 0.0	 0.0	 0.0	 0.0	 0.0	 0.0	 0.0	 0.0	 0.0; % NG
	990	 39.0	 60.0	 72.0	 -72.0	 1.06364	 1.0	 1	 68	 0.0	 0.0	 0.0	 0.0	 0.0	 0.0	 0.0	 0.0	 0.0	 0.0	 0.0	 0.0; % PEL
	995	 0.0	 0.0	 2.0	 -2.0	 1.06364	 1.0	 0	 3	 0.0	 0.0	 0.0	 0.0	 0.0	 0.0	 0.0	 0.0	 0.0	 0.0	 0.0	 0.0; % PEL
	1006	 0.0	 0.0	 5.0	 -5.0	 1.06364	 2.0	 0	 9	 0.5	 0.0	 0.0	 0.0	 0.0	 0.0	 0.0	 0.0	 0.0	 0.0	 0.0	 0.0; % PEL
	1011	 132.0	 37.0	 196.0	 -196.0	 1.09091	 235.0	 1	 391	 64.5	 0.0	 0.0	 0.0	 0.0	 0.0	 0.0	 0.0	 0.0	 0.0	 0.0	 0.0; % COW
	1013	 0.0	 0.0	 71.0	 -71.0	 1.06364	 37.0	 0	 141	 0.0	 0.0	 0.0	 0.0	 0.0	 0.0	 0.0	 0.0	 0.0	 0.0	 0.0	 0.0; % NG
	1016	 0.0	 0.0	 96.0	 -96.0	 1.07273	 3.0	 0	 192	 1.0	 0.0	 0.0	 0.0	 0.0	 0.0	 0.0	 0.0	 0.0	 0.0	 0.0	 0.0; % PEL
	1036	 0.0	 0.0	 30.0	 -25.0	 1.08182	 101.0	 0	 49	 24.5	 0.0	 0.0	 0.0	 0.0	 0.0	 0.0	 0.0	 0.0	 0.0	 0.0	 0.0; % NG
	1042	 0.0	 0.0	 4.0	 -4.0	 1.06364	 2.0	 0	 7	 0.0	 0.0	 0.0	 0.0	 0.0	 0.0	 0.0	 0.0	 0.0	 0.0	 0.0	 0.0; % PEL
	1057	 57.0	 100.0	 120.0	 -120.0	 1.07273	 10.0	 1	 163	 0.0	 0.0	 0.0	 0.0	 0.0	 0.0	 0.0	 0.0	 0.0	 0.0	 0.0	 0.0; % NG
	1060	 0.0	 0.0	 2.0	 -2.0	 1.08182	 2.0	 0	 3	 0.5	 0.0	 0.0	 0.0	 0.0	 0.0	 0.0	 0.0	 0.0	 0.0	 0.0	 0.0; % PEL
	1062	 0.0	 0.0	 28.0	 -28.0	 1.07273	 6.0	 0	 56	 0.5	 0.0	 0.0	 0.0	 0.0	 0.0	 0.0	 0.0	 0.0	 0.0	 0.0	 0.0; % NG
	1067	 2.0	 10.0	 12.0	 -12.0	 1.08182	 11.0	 1	 7	 0.0	 0.0	 0.0	 0.0	 0.0	 0.0	 0.0	 0.0	 0.0	 0.0	 0.0	 0.0; % NG
	1071	 0.0	 0.0	 23.0	 -21.0	 1.09091	 52.0	 0	 41	 2.5	 0.0	 0.0	 0.0	 0.0	 0.0	 0.0	 0.0	 0.0	 0.0	 0.0	 0.0; % NG
	1071	 7.0	 -17.0	 23.0	 -20.4	 1.09091	 52.0	 1	 24	 2.5	 0.0	 0.0	 0.0	 0.0	 0.0	 0.0	 0.0	 0.0	 0.0	 0.0	 0.0; % PEL
	1071	 0.0	 0.0	 36.0	 -36.0	 1.09091	 25.0	 0	 72	 -32.0	 0.0	 0.0	 0.0	 0.0	 0.0	 0.0	 0.0	 0.0	 0.0	 0.0	 0.0; % PEL
	1071	 0.0	 0.0	 35.0	 -35.0	 1.09091	 25.0	 0	 69	 -32.0	 0.0	 0.0	 0.0	 0.0	 0.0	 0.0	 0.0	 0.0	 0.0	 0.0	 0.0; % NG
	1086	 0.0	 0.0	 53.0	 -53.0	 1.08182	 69.0	 0	 106	 4.0	 0.0	 0.0	 0.0	 0.0	 0.0	 0.0	 0.0	 0.0	 0.0	 0.0	 0.0; % NG
	1086	 99.0	 -50.0	 78.0	 -78.0	 1.08182	 58.0	 1	 156	 46.0	 0.0	 0.0	 0.0	 0.0	 0.0	 0.0	 0.0	 0.0	 0.0	 0.0	 0.0; % NG
	1087	 105.0	 72.0	 259.0	 -259.0	 1.08182	 58.0	 1	 517	 42.5	 0.0	 0.0	 0.0	 0.0	 0.0	 0.0	 0.0	 0.0	 0.0	 0.0	 0.0; % NG
	1087	 0.0	 0.0	 37.0	 -37.0	 1.08182	 40.0	 0	 73	 6.0	 0.0	 0.0	 0.0	 0.0	 0.0	 0.0	 0.0	 0.0	 0.0	 0.0	 0.0; % COW
	1099	 0.0	 0.0	 121.0	 -121.0	 1.08182	 3.0	 0	 242	 0.0	 0.0	 0.0	 0.0	 0.0	 0.0	 0.0	 0.0	 0.0	 0.0	 0.0	 0.0; % NG
	1126	 0.0	 0.0	 26.0	 -26.0	 1.06364	 4.0	 0	 52	 1.0	 0.0	 0.0	 0.0	 0.0	 0.0	 0.0	 0.0	 0.0	 0.0	 0.0	 0.0; % PEL
	1132	 21.0	 34.0	 40.8	 -40.8	 1.08182	 31.0	 1	 74	 0.0	 0.0	 0.0	 0.0	 0.0	 0.0	 0.0	 0.0	 0.0	 0.0	 0.0	 0.0; % NG
...
];

%% generator cost data
%	2	startup	shutdown	n	c(n-1)	...	c0
mpc.gencost = [
	2	 0.0	 0.0	 3	   0.000000	   1.130571	   0.000000; % NG
	2	 0.0	 0.0	 3	   0.000000	   0.963038	   0.000000; % NG
	2	 0.0	 0.0	 3	   0.000000	   1.159561	   0.000000; % NG
	2	 0.0	 0.0	 3	   0.000000	   0.524729	   0.000000; % COW
	2	 0.0	 0.0	 3	   0.000000	   0.837700	   0.000000; % COW
	2	 0.0	 0.0	 3	   0.000000	   0.708959	   0.000000; % COW
	2	 0.0	 0.0	 3	   0.000000	   0.957436	   0.000000; % NG
	2	 0.0	 0.0	 3	   0.000000	   0.502125	   0.000000; % COW
	2	 0.0	 0.0	 3	   0.000000	   0.829129	   0.000000; % COW
	2	 0.0	 0.0	 3	   0.000000	   0.514881	   0.000000; % COW
	2	 0.0	 0.0	 3	   0.000000	   0.544313	   0.000000; % COW
	2	 0.0	 0.0	 3	   0.000000	   1.093496	   0.000000; % NG
	2	 0.0	 0.0	 3	   0.000000	   1.614941	   0.000000; % NG
	2	 0.0	 0.0	 3	   0.000000	   0.693682	   0.000000; % NG
	2	 0.0	 0.0	 3	   0.000000	   0.785375	   0.000000; % NG
	2	 0.0	 0.0	 3	   0.000000	   0.238006	   0.000000; % COW
	2	 0.0	 0.0	 3	   0.000000	   1.085236	   0.000000; % NG
	2	 0.0	 0.0	 3	   0.000000	   1.182441	   0.000000; % NG
	2	 0.0	 0.0	 3	   0.000000	   1.124830	   0.000000; % NG
	2	 0.0	 0.0	 3	   0.000000	   0.399645	   0.000000; % COW
	2	 0.0	 0.0	 3	   0.000000	   1.128115	   0.000000; % NG
	2	 0.0	 0.0	 3	   0.000000	   0.652315	   0.000000; % NG
	2	 0.0	 0.0	 3	   0.000000	   1.084848	   0.000000; % NG
	2	 0.0	 0.0	 3	   0.000000	   1.007900	   0.000000; % NG
	2	 0.0	 0.0	 3	   0.000000	   0.738887	   0.000000; % NG
	2	 0.0	 0.0	 3	   0.000000	   1.602351	   0.000000; % NG
	2	 0.0	 0.0	 3	   0.000000	   0.926015	   0.000000; % NG
	2	 0.0	 0.0	 3	   0.000000	   1.051501	   0.000000; % NG
	2	 0.0	 0.0	 3	   0.000000	   1.277704	   0.000000; % NG
	2	 0.0	 0.0	 3	   0.000000	   1.199251	   0.000000; % NG
	2	 0.0	 0.0	 3	   0.000000	   1.198757	   0.000000; % NG
	2	 0.0	 0.0	 3	   0.000000	   0.959947	   0.000000; % NG
	2	 0.0	 0.0	 3	   0.000000	   0.868297	   0.000000; % NG
	2	 0.0	 0.0	 3	   0.000000	   1.181848	   0.000000; % NG
	2	 0.0	 0.0	 3	   0.000000	   0.946712	   0.000000; % NG
	2	 0.0	 0.0	 3	   0.000000	   0.839811	   0.000000; % NG
	2	 0.0	 0.0	 3	   0.000000	   1.389735	   0.000000; % NG
	2	 0.0	 0.0	 3	   0.000000	   7.126368	   0.000000; % PEL
	2	 0.0	 0.0	 3	   0.000000	   0.951695	   0.000000; % NG
	2	 0.0	 0.0	 3	   0.000000	   1.082832	   0.000000; % NG
	2	 0.0	 0.0	 3	   0.000000	   1.503059	   0.000000; % NG
	2	 0.0	 0.0	 3	   0.000000	   1.263646	   0.000000; % NG
	2	 0.0	 0.0	 3	   0.000000	   0.659290	   0.000000; % NG
	2	 0.0	 0.0	 3	   0.000000	   1.000260	   0.000000; % COW
	2	 0.0	 0.0	 3	   0.000000	   1.021371	   0.000000; % NG
	2	 0.0	 0.0	 3	   0.000000	   1.148885	   0.000000; % NG
	2	 0.0	 0.0	 3	   0.000000	   0.763945	   0.000000; % NG
	2	 0.0	 0.0	 3	   0.000000	   0.793630	   0.000000; % NG
	2	 0.0	 0.0	 3	   0.000000	   0.834895	   0.000000; % NG
	2	 0.0	 0.0	 3	   0.000000	   1.198949	   0.000000; % NG
	2	 0.0	 0.0	 3	   0.000000	   0.921835	   0.000000; % NG
	2	 0.0	 0.0	 3	   0.000000	   0.899323	   0.000000; % NG
	2	 0.0	 0.0	 3	   0.000000	   0.982605	   0.000000; % NG
	2	 0.0	 0.0	 3	   0.000000	   0.798186	   0.000000; % NG
	2	 0.0	 0.0	 3	   0.000000	   1.047196	   0.000000; % COW
	2	 0.0	 0.0	 3	   0.000000	   1.252198	   0.000000; % NG
	2	 0.0	 0.0	 3	   0.000000	   0.833173	   0.000000; % NG
	2	 0.0	 0.0	 3	   0.000000	   1.047327	   0.000000; % NG
	2	 0.0	 0.0	 3	   0.000000	   1.203337	   0.000000; % NG
	2	 0.0	 0.0	 3	   0.000000	   1.468444	   0.000000; % NG
	2	 0.0	 0.0	 3	   0.000000	   1.469044	   0.000000; % NG
	2	 0.0	 0.0	 3	   0.000000	   1.168724	   0.000000; % NG
	2	 0.0	 0.0	 3	   0.000000	   0.991309	   0.000000; % NG
	2	 0.0	 0.0	 3	   0.000000	   0.993219	   0.000000; % COW
	2	 0.0	 0.0	 3	   0.000000	   0.579261	   0.000000; % NG
	2	 0.0	 0.0	 3	   0.000000	   0.940525	   0.000000; % COW
	2	 0.0	 0.0	 3	   0.000000	   1.162208	   0.000000; % NG
	2	 0.0	 0.0	 3	   0.000000	   1.209173	   0.000000; % NG
	2	 0.0	 0.0	 3	   0.000000	   1.074581	   0.000000; % NG
	2	 0.0	 0.0	 3	   0.000000	   0.995473	   0.000000; % COW
	2	 0.0	 0.0	 3	   0.000000	   1.052720	   0.000000; % NG
	2	 0.0	 0.0	 3	   0.000000	   1.385590	   0.000000; % NG
	2	 0.0	 0.0	 3	   0.000000	   0.886548	   0.000000; % NG
	2	 0.0	 0.0	 3	   0.000000	   1.297948	   0.000000; % NG
	2	 0.0	 0.0	 3	   0.000000	   1.020977	   0.000000; % NG
	2	 0.0	 0.0	 3	   0.000000	   1.372150	   0.000000; % NG
	2	 0.0	 0.0	 3	   0.000000	   1.222534	   0.000000; % NG
	2	 0.0	 0.0	 3	   0.000000	   0.750568	   0.000000; % COW
	2	 0.0	 0.0	 3	   0.000000	   1.551767	   0.000000; % NG
	2	 0.0	 0.0	 3	   0.000000	   0.782806	   0.000000; % NG
	2	 0.0	 0.0	 3	   0.000000	   0.971163	   0.000000; % COW
	2	 0.0	 0.0	 3	   0.000000	   0.949900	   0.000000; % COW
	2	 0.0	 0.0	 3	   0.000000	   0.633020	   0.000000; % COW
	2	 0.0	 0.0	 3	   0.000000	   1.138738	   0.000000; % NG
	2	 0.0	 0.0	 3	   0.000000	   1.024503	   0.000000; % NG
	2	 0.0	 0.0	 3	   0.000000	   0.893100	   0.000000; % NG
	2	 0.0	 0.0	 3	   0.000000	   1.330766	   0.000000; % NG
	2	 0.0	 0.0	 3	   0.000000	   1.276348	   0.000000; % NG
	2	 0.0	 0.0	 3	   0.000000	   6.918481	   0.000000; % PEL
	2	 0.0	 0.0	 3	   0.000000	   6.602076	   0.000000; % PEL
	2	 0.0	 0.0	 3	   0.000000	   0.521365	   0.000000; % NG
	2	 0.0	 0.0	 3	   0.000000	   0.906814	   0.000000; % NG
	2	 0.0	 0.0	 3	   0.000000	   0.612944	   0.000000; % COW
	2	 0.0	 0.0	 3	   0.000000	   0.443716	   0.000000; % NG
	2	 0.0	 0.0	 3	   0.000000	   6.853108	   0.000000; % PEL
	2	 0.0	 0.0	 3	   0.000000	   1.171206	   0.000000; % COW
	2	 0.0	 0.0	 3	   0.000000	   1.053022	   0.000000; % NG
	2	 0.0	 0.0	 3	   0.000000	   0.873138	   0.000000; % NG
	2	 0.0	 0.0	 3	   0.000000	   0.734485	   0.000000; % NG
	2	 0.0	 0.0	 3	   0.000000	   1.426467	   0.000000; % NG
	2	 0.0	 0.0	 3	   0.000000	   0.827996	   0.000000; % COW
	2	 0.0	 0.0	 3	   0.000000	   7.335842	   0.000000; % PEL
	2	 0.0	 0.0	 3	   0.000000	   7.714163	   0.000000; % PEL
	2	 0.0	 0.0	 3	   0.000000	   6.853716	   0.000000; % PEL
	2	 0.0	 0.0	 3	   0.000000	   1.095149	   0.000000; % NG
	2	 0.0	 0.0	 3	   0.000000	   1.462196	   0.000000; % NG
	2	 0.0	 0.0	 3	   0.000000	   1.050282	   0.000000; % NG
	2	 0.0	 0.0	 3	   0.000000	   1.160335	   0.000000; % NG
	2	 0.0	 0.0	 3	   0.000000	   1.466461	   0.000000; % NG
	2	 0.0	 0.0	 3	   0.000000	   1.197566	   0.000000; % NG
	2	 0.0	 0.0	 3	   0.000000	   0.891668	   0.000000; % NG
	2	 0.0	 0.0	 3	   0.000000	   1.056078	   0.000000; % NG
	2	 0.0	 0.0	 3	   0.000000	   0.000000	   0.000000; % SYNC
	2	 0.0	 0.0	 3	   0.000000	   6.907541	   0.000000; % PEL
	2	 0.0	 0.0	 3	   0.000000	   1.159686	   0.000000; % NG
	2	 0.0	 0.0	 3	   0.000000	   6.454924	   0.000000; % PEL
	2	 0.0	 0.0	 3	   0.000000	   1.327533	   0.000000; % NG
	2	 0.0	 0.0	 3	   0.000000	   1.050173	   0.000000; % NG
	2	 0.0	 0.0	 3	   0.000000	   1.001466	   0.000000; % NG
	2	 0.0	 0.0	 3	   0.000000	   7.645738	   0.000000; % PEL
	2	 0.0	 0.0	 3	   0.000000	   1.073438	   0.000000; % NG
	2	 0.0	 0.0	 3	   0.000000	   7.088356	   0.000000; % PEL
	2	 0.0	 0.0	 3	   0.000000	   0.951626	   0.000000; % NG
	2	 0.0	 0.0	 3	   0.000000	   1.028018	   0.000000; % NG
	2	 0.0	 0.0	 3	   0.000000	   0.846186	   0.000000; % NG
	2	 0.0	 0.0	 3	   0.000000	   7.426937	   0.000000; % PEL
	2	 0.0	 0.0	 3	   0.000000	   0.000000	   0.000000; % SYNC
	2	 0.0	 0.0	 3	   0.000000	   0.658280	   0.000000; % COW
	2	 0.0	 0.0	 3	   0.000000	   6.530433	   0.000000; % PEL
	2	 0.0	 0.0	 3	   0.000000	   1.047615	   0.000000; % NG
	2	 0.0	 0.0	 3	   0.000000	   1.118475	   0.000000; % NG
	2	 0.0	 0.0	 3	   0.000000	   0.472659	   0.000000; % COW
	2	 0.0	 0.0	 3	   0.000000	   1.113154	   0.000000; % NG
	2	 0.0	 0.0	 3	   0.000000	   0.705259	   0.000000; % NG
	2	 0.0	 0.0	 3	   0.000000	   6.737556	   0.000000; % PEL
	2	 0.0	 0.0	 3	   0.000000	   6.213932	   0.000000; % PEL
	2	 0.0	 0.0	 3	   0.000000	   0.626990	   0.000000; % NG
	2	 0.0	 0.0	 3	   0.000000	   1.147798	   0.000000; % NG
	2	 0.0	 0.0	 3	   0.000000	   1.249843	   0.000000; % NG
	2	 0.0	 0.0	 3	   0.000000	   1.227583	   0.000000; % NG
	2	 0.0	 0.0	 3	   0.000000	   1.138237	   0.000000; % NG
	2	 0.0	 0.0	 3	   0.000000	   1.135346	   0.000000; % NG
	2	 0.0	 0.0	 3	   0.000000	   1.149991	   0.000000; % NG
	2	 0.0	 0.0	 3	   0.000000	   6.696735	   0.000000; % PEL
	2	 0.0	 0.0	 3	   0.000000	   1.192072	   0.000000; % NG
	2	 0.0	 0.0	 3	   0.000000	   0.421277	   0.000000; % COW
	2	 0.0	 0.0	 3	   0.000000	   6.868145	   0.000000; % PEL
	2	 0.0	 0.0	 3	   0.000000	   6.860529	   0.000000; % PEL
	2	 0.0	 0.0	 3	   0.000000	   0.910216	   0.000000; % COW
	2	 0.0	 0.0	 3	   0.000000	   0.907862	   0.000000; % NG
	2	 0.0	 0.0	 3	   0.000000	   0.836849	   0.000000; % NG
	2	 0.0	 0.0	 3	   0.000000	   6.466903	   0.000000; % PEL
	2	 0.0	 0.0	 3	   0.000000	   6.680710	   0.000000; % PEL
	2	 0.0	 0.0	 3	   0.000000	   1.089515	   0.000000; % NG
	2	 0.0	 0.0	 3	   0.000000	   7.027102	   0.000000; % PEL
	2	 0.0	 0.0	 3	   0.000000	   6.874998	   0.000000; % PEL
	2	 0.0	 0.0	 3	   0.000000	   0.919328	   0.000000; % NG
	2	 0.0	 0.0	 3	   0.000000	   1.404286	   0.000000; % NG
	2	 0.0	 0.0	 3	   0.000000	   6.983910	   0.000000; % PEL
	2	 0.0	 0.0	 3	   0.000000	   1.485052	   0.000000; % NG
	2	 0.0	 0.0	 3	   0.000000	   7.028783	   0.000000; % PEL
	2	 0.0	 0.0	 3	   0.000000	   0.944316	   0.000000; % NG
	2	 0.0	 0.0	 3	   0.000000	   1.193905	   0.000000; % NG
	2	 0.0	 0.0	 3	   0.000000	   7.086845	   0.000000; % PEL
	2	 0.0	 0.0	 3	   0.000000	   1.103092	   0.000000; % NG
	2	 0.0	 0.0	 3	   0.000000	   1.366329	   0.000000; % NG
	2	 0.0	 0.0	 3	   0.000000	   1.267169	   0.000000; % NG
	2	 0.0	 0.0	 3	   0.000000	   1.305351	   0.000000; % NG
	2	 0.0	 0.0	 3	   0.000000	   0.947336	   0.000000; % NG
	2	 0.0	 0.0	 3	   0.000000	   7.059396	   0.000000; % PEL
	2	 0.0	 0.0	 3	   0.000000	   0.520298	   0.000000; % COW
	2	 0.0	 0.0	 3	   0.000000	   1.502168	   0.000000; % NG
	2	 0.0	 0.0	 3	   0.000000	   1.175581	   0.000000; % NG
	2	 0.0	 0.0	 3	   0.000000	   6.999260	   0.000000; % PEL
	2	 0.0	 0.0	 3	   0.000000	   0.806149	   0.000000; % NG
	2	 0.0	 0.0	 3	   0.000000	   1.060280	   0.000000; % NG
	2	 0.0	 0.0	 3	   0.000000	   1.069450	   0.000000; % NG
	2	 0.0	 0.0	 3	   0.000000	   7.354245	   0.000000; % PEL
	2	 0.0	 0.0	 3	   0.000000	   6.933516	   0.000000; % PEL
	2	 0.0	 0.0	 3	   0.000000	   6.697876	   0.000000; % PEL
	2	 0.0	 0.0	 3	   0.000000	   0.342631	   0.000000; % COW
	2	 0.0	 0.0	 3	   0.000000	   1.018876	   0.000000; % NG
	2	 0.0	 0.0	 3	   0.000000	   7.206328	   0.000000; % PEL
	2	 0.0	 0.0	 3	   0.000000	   1.046741	   0.000000; % NG
	2	 0.0	 0.0	 3	   0.000000	   7.058850	   0.000000; % PEL
	2	 0.0	 0.0	 3	   0.000000	   1.142666	   0.000000; % NG
	2	 0.0	 0.0	 3	   0.000000	   6.013520	   0.000000; % PEL
	2	 0.0	 0.0	 3	   0.000000	   0.960909	   0.000000; % NG
	2	 0.0	 0.0	 3	   0.000000	   1.362504	   0.000000; % NG
	2	 0.0	 0.0	 3	   0.000000	   1.225593	   0.000000; % NG
	2	 0.0	 0.0	 3	   0.000000	   6.509532	   0.000000; % PEL
	2	 0.0	 0.0	 3	   0.000000	   6.922521	   0.000000; % PEL
	2	 0.0	 0.0	 3	   0.000000	   0.812348	   0.000000; % NG
	2	 0.0	 0.0	 3	   0.000000	   1.075718	   0.000000; % NG
	2	 0.0	 0.0	 3	   0.000000	   1.179969	   0.000000; % NG
	2	 0.0	 0.0	 3	   0.000000	   1.068915	   0.000000; % NG
	2	 0.0	 0.0	 3	   0.000000	   0.896657	   0.000000; % COW
	2	 0.0	 0.0	 3	   0.000000	   0.974838	   0.000000; % NG
	2	 0.0	 0.0	 3	   0.000000	   7.188252	   0.000000; % PEL
	2	 0.0	 0.0	 3	   0.000000	   1.396959	   0.000000; % NG
...
];

%% branch data
%	fbus	tbus	r	x	b	rateA	rateB	rateC	ratio	angle	status	angmin	angmax
mpc.branch = [
	9	 11	 0.00064	 0.0305	 0.0	 400.0	 400.0	 400.0	 1.09271	 0.0	 1	 -30.0	 30.0;
	13	 12	 0.00069	 0.03946	 0.0	 250.0	 250.0	 250.0	 0.9999	 0.0	 1	 -30.0	 30.0;
	20	 18	 0.00088	 0.05709	 0.0	 330.0	 330.0	 330.0	 0.9999	 0.0	 1	 -30.0	 30.0;
	34	 33	 0.0007	 0.03652	 0.0	 250.0	 250.0	 250.0	 0.9999	 0.0	 1	 -30.0	 30.0;
	35	 37	 0.00036	 0.02519	 0.0	 500.0	 500.0	 500.0	 1.07313	 0.0	 1	 -30.0	 30.0;
	36	 38	 0.00036	 0.02519	 0.0	 500.0	 500.0	 500.0	 1.07313	 0.0	 1	 -30.0	 30.0;
	53	 54	 0.00034	 0.02097	 0.0	 500.0	 500.0	 500.0	 1.0755	 0.0	 1	 -30.0	 30.0;
	57	 59	 0.00034	 0.02097	 0.0	 500.0	 500.0	 500.0	 1.07313	 0.0	 1	 -30.0	 30.0;
	68	 70	 0.00081	 0.03	 0.0	 400.0	 400.0	 400.0	 1.10102	 0.0	 1	 -30.0	 30.0;
	105	 107	 0.00075	 0.02445	 -0.00832	 330.0	 330.0	 330.0	 1.039	 0.0	 1	 -30.0	 30.0;
	106	 108	 0.0004	 0.0253	 0.0	 500.0	 500.0	 500.0	 1.0457	 0.0	 1	 -30.0	 30.0;
	142	 145	 0.00053	 0.02875	 -0.016	 400.0	 400.0	 400.0	 1.06299	 0.0	 1	 -30.0	 30.0;
	170	 171	 0.00064	 0.0305	 0.0	 400.0	 400.0	 400.0	 1.07408	 0.0	 1	 -30.0	 30.0;
	177	 180	 0.00023	 0.023	 0.0	 500.0	 500.0	 500.0	 1.07426	 0.0	 1	 -30.0	 30.0;
	178	 181	 0.00023	 0.023	 0.0	 500.0	 500.0	 500.0	 1.07426	 0.0	 1	 -30.0	 30.0;
	185	 184	 0.00032	 0.04392	 0.0	 330.0	 330.0	 330.0	 0.9999	 0.0	 1	 -30.0	 30.0;
	188	 190	 0.0003	 0.02732	 0.0	 500.0	 500.0	 500.0	 1.10037	 0.0	 1	 -30.0	 30.0;
	195	 197	 0.00035	 0.02375	 0.0	 500.0	 500.0	 500.0	 1.08671	 0.0	 1	 -30.0	 30.0;
	208	 209	 0.00051	 0.0275	 0.0	 400.0	 400.0	 400.0	 1.07702	 0.0	 1	 -30.0	 30.0;
	213	 211	 0.00084	 0.06858	 0.0	 250.0	 250.0	 250.0	 0.9999	 0.0	 1	 -30.0	 30.0;
	216	 218	 0.00033	 0.02711	 0.0	 500.0	 500.0	 500.0	 1.08613	 0.0	 1	 -30.0	 30.0;
	220	 218	 0.00032	 0.0464	 0.0	 330.0	 330.0	 330.0	 0.9999	 0.0	 1	 -30.0	 30.0;
	227	 225	 0.00113	 0.05647	 0.0	 330.0	 330.0	 330.0	 0.9999	 0.0	 1	 -30.0	 30.0;
	224	 226	 0.00075	 0.02469	 -0.008	 330.0	 330.0	 330.0	 1.04544	 0.0	 1	 -30.0	 30.0;
	3116	 180	 0.00029	 0.00317	 0.09184	 772.0	 772.0	 772.0	 0.0	 0.0	 1	 -30.0	 30.0;
	3116	 181	 0.0003	 0.00326	 0.09536	 770.0	 770.0	 770.0	 0.0	 0.0	 1	 -30.0	 30.0;
	240	 82	 0.01475	 0.08595	 0.13036	 314.0	 314.0	 314.0	 0.0	 0.0	 1	 -30.0	 30.0;
	3114	 90	 0.01244	 0.06959	 0.10842	 308.0	 308.0	 308.0	 0.0	 0.0	 1	 -30.0	 30.0;
	3114	 120	 0.01207	 0.06905	 0.11519	 311.0	 311.0	 311.0	 0.0	 0.0	 1	 -30.0	 30.0;
	144	 3115	 0.00168	 0.01603	 0.51488	 723.0	 723.0	 723.0	 0.0	 0.0	 1	 -30.0	 30.0;
	3117	 169	 0.0018	 0.01616	 0.0484	 386.0	 386.0	 386.0	 0.0	 0.0	 1	 -30.0	 30.0;
	3117	 170	 0.0018	 0.01616	 0.0484	 386.0	 386.0	 386.0	 0.0	 0.0	 1	 -30.0	 30.0;
	3118	 61	 0.00223	 0.02209	 0.69011	 736.0	 736.0	 736.0	 0.0	 0.0	 1	 -30.0	 30.0;
	3118	 62	 0.00223	 0.02209	 0.69011	 736.0	 736.0	 736.0	 0.0	 0.0	 1	 -30.0	 30.0;
	97	 3113	 0.00293	 0.03054	 0.95472	 754.0	 754.0	 754.0	 0.0	 0.0	 1	 -30.0	 30.0;
	56	 28	 0.01174	 0.07014	 0.12689	 318.0	 318.0	 318.0	 0.0	 0.0	 1	 -30.0	 30.0;
	35	 105	 0.00919	 0.06614	 0.10451	 347.0	 347.0	 347.0	 0.0	 0.0	 1	 -30.0	 30.0;
	36	 106	 0.00822	 0.05767	 0.0982	 343.0	 343.0	 343.0	 0.0	 0.0	 1	 -30.0	 30.0;
	167	 39	 0.01698	 0.12459	 0.1957	 231.0	 231.0	 231.0	 0.0	 0.0	 1	 -30.0	 30.0;
	153	 46	 0.01298	 0.06738	 0.10284	 250.0	 250.0	 250.0	 0.0	 0.0	 1	 -30.0	 30.0;
	152	 25	 0.01068	 0.0475	 0.09495	 276.0	 276.0	 276.0	 0.0	 0.0	 1	 -30.0	 30.0;
	188	 26	 0.01436	 0.10729	 0.16081	 231.0	 231.0	 231.0	 0.0	 0.0	 1	 -30.0	 30.0;
	53	 124	 0.01488	 0.08161	 0.1148	 266.0	 266.0	 266.0	 0.0	 0.0	 1	 -30.0	 30.0;
	52	 106	 0.01116	 0.07171	 0.10367	 267.0	 267.0	 267.0	 0.0	 0.0	 1	 -30.0	 30.0;
	203	 98	 0.00552	 0.05948	 0.17077	 317.0	 317.0	 317.0	 0.0	 0.0	 1	 -30.0	 30.0;
	234	 189	 0.01118	 0.06597	 0.10778	 267.0	 267.0	 267.0	 0.0	 0.0	 1	 -30.0	 30.0;
	221	 188	 0.01682	 0.08909	 0.12993	 295.0	 295.0	 295.0	 0.0	 0.0	 1	 -30.0	 30.0;
	222	 189	 0.01384	 0.08702	 0.13484	 295.0	 295.0	 295.0	 0.0	 0.0	 1	 -30.0	 30.0;
	238	 192	 0.01517	 0.09938	 0.14492	 197.0	 197.0	 197.0	 0.0	 0.0	 1	 -30.0	 30.0;
	57	 14	 0.01457	 0.07362	 0.13344	 293.0	 293.0	 293.0	 0.0	 0.0	 1	 -30.0	 30.0;
	229	 23	 0.01403	 0.10413	 0.15949	 231.0	 231.0	 231.0	 0.0	 0.0	 1	 -30.0	 30.0;
	115	 68	 0.00374	 0.0438	 0.10096	 438.0	 438.0	 438.0	 0.0	 0.0	 1	 -30.0	 30.0;
	187	 97	 0.00194	 0.02007	 0.54307	 752.0	 752.0	 752.0	 0.0	 0.0	 1	 -30.0	 30.0;
	58	 12	 0.0015	 0.01506	 0.4032	 741.0	 741.0	 741.0	 0.0	 0.0	 1	 -30.0	 30.0;
	210	 171	 0.00296	 0.03484	 0.9296	 799.0	 799.0	 799.0	 0.0	 0.0	 1	 -30.0	 30.0;
	136	 70	 0.00169	 0.01931	 0.53814	 788.0	 788.0	 788.0	 0.0	 0.0	 1	 -30.0	 30.0;
	38	 108	 0.00137	 0.01569	 0.43744	 789.0	 789.0	 789.0	 0.0	 0.0	 1	 -30.0	 30.0;
	37	 139	 0.00234	 0.02677	 0.74653	 789.0	 789.0	 789.0	 0.0	 0.0	 1	 -30.0	 30.0;
...